download/pglib-opf-master/api/pglib_opf_case2383wp_k__api.m
%%%%%%%%%%%%%%%%%%%%%%%%%%%%%%%%%%%%%%%%%%%%%%%%%%%%%%%%%%%%%%%%%%%%%%%%%%%
%%%%                                                                  %%%%%
%%%%    IEEE PES Power Grid Library - Optimal Power Flow - v19.05     %%%%%
%%%%          (https://github.com/power-grid-lib/pglib-opf)           %%%%%
%%%%             Benchmark Group - Active Power Increase              %%%%%
%%%%                         08 - May - 2019                          %%%%%
%%%%                                                                  %%%%%
%%%%%%%%%%%%%%%%%%%%%%%%%%%%%%%%%%%%%%%%%%%%%%%%%%%%%%%%%%%%%%%%%%%%%%%%%%%
function mpc = pglib_opf_case2383wp_k__api
mpc.version = '2';
mpc.baseMVA = 100.0;

%% bus data
%	bus_i	type	Pd	Qd	Gs	Bs	area	Vm	Va	baseKV	zone	Vmax	Vmin
mpc.bus = [
	1	 1	 0.0	 0.0	 0.0	 0.0	 1	    1.03000	    0.00000	 220.0	 1	    1.11000	    0.95000;
	2	 1	 0.0	 0.0	 0.0	 0.0	 1	    1.03000	    0.00000	 220.0	 1	    1.11000	    0.95000;
	3	 1	 0.0	 0.0	 0.0	 0.0	 1	    1.03000	    0.00000	 220.0	 1	    1.11000	    0.95000;
	4	 1	 0.0	 0.0	 0.0	 0.0	 1	    1.03000	    0.00000	 220.0	 1	    1.11000	    0.95000;
	5	 1	 0.0	 0.0	 0.0	 0.0	 1	    1.03000	    0.00000	 220.0	 1	    1.11000	    0.95000;
	6	 1	 0.0	 0.0	 0.0	 0.0	 1	    1.00000	    0.00000	 400.0	 1	    1.05000	    0.95000;
	7	 1	 0.0	 0.0	 0.0	 0.0	 1	    1.03000	    0.00000	 220.0	 1	    1.11000	    0.95000;
	8	 1	 0.0	 0.0	 0.0	 0.0	 1	    1.00000	    0.00000	 400.0	 1	    1.05000	    0.95000;
	9	 1	 0.0	 0.0	 0.0	 0.0	 1	    1.00000	    0.00000	 400.0	 1	    1.05000	    0.95000;
	10	 2	 12.75	 9.00	 0.0	 0.0	 1	    1.03000	    0.00000	 220.0	 1	    1.11000	    0.95000;
	11	 1	 0.0	 0.0	 0.0	 0.0	 1	    1.03000	    0.00000	 220.0	 1	    1.11000	    0.95000;
	12	 1	 0.0	 0.0	 0.0	 0.0	 1	    1.03000	    0.00000	 220.0	 1	    1.11000	    0.95000;
	13	 1	 0.0	 0.0	 0.0	 0.0	 1	    1.03000	    0.00000	 220.0	 1	    1.11000	    0.95000;
	14	 1	 0.0	 0.0	 0.0	 0.0	 1	    1.03000	    0.00000	 220.0	 1	    1.11000	    0.95000;
	15	 1	 0.0	 0.0	 0.0	 0.0	 1	    1.00000	    0.00000	 400.0	 1	    1.05000	    0.95000;
	16	 2	 57.22	 100.00	 0.0	 0.0	 1	    1.03000	    0.00000	 220.0	 1	    1.11000	    0.95000;
	17	 2	 80.28	 150.00	 0.0	 0.0	 1	    1.03000	    0.00000	 220.0	 1	    1.11000	    0.95000;
	18	 3	 159.52	 350.00	 0.0	 0.0	 1	    1.00000	    0.00000	 400.0	 1	    1.05000	    0.95000;
	19	 1	 0.0	 0.0	 0.0	 0.0	 1	    1.03000	    0.00000	 220.0	 1	    1.11000	    0.95000;
	20	 1	 0.0	 0.0	 0.0	 0.0	 1	    1.00000	    0.00000	 400.0	 1	    1.05000	    0.95000;
	21	 1	 0.0	 0.0	 0.0	 0.0	 1	    1.03000	    0.00000	 220.0	 1	    1.11000	    0.95000;
	22	 1	 0.0	 0.0	 0.0	 0.0	 1	    1.03000	    0.00000	 220.0	 1	    1.11000	    0.95000;
	23	 1	 0.0	 0.0	 0.0	 0.0	 1	    1.03000	    0.00000	 220.0	 2	    1.11000	    0.95000;
	24	 1	 0.0	 0.0	 0.0	 0.0	 1	    1.03000	    0.00000	 220.0	 2	    1.11000	    0.95000;
	25	 1	 0.0	 0.0	 0.0	 0.0	 1	    1.03000	    0.00000	 220.0	 2	    1.11000	    0.95000;
	26	 1	 0.0	 0.0	 0.0	 0.0	 1	    1.03000	    0.00000	 220.0	 2	    1.11000	    0.95000;
	27	 1	 0.0	 0.0	 0.0	 0.0	 1	    1.03000	    0.00000	 220.0	 2	    1.11000	    0.95000;
	28	 1	 0.0	 0.0	 0.0	 0.0	 1	    1.03000	    0.00000	 220.0	 2	    1.11000	    0.95000;
	29	 2	 27.09	 60.00	 0.0	 0.0	 1	    1.03000	    0.00000	 220.0	 2	    1.11000	    0.95000;
	30	 2	 27.09	 60.00	 0.0	 0.0	 1	    1.03000	    0.00000	 220.0	 2	    1.11000	    0.95000;
	31	 2	 21.87	 50.00	 0.0	 0.0	 1	    1.00000	    0.00000	 400.0	 2	    1.05000	    0.95000;
	32	 1	 0.0	 0.0	 0.0	 0.0	 1	    1.00000	    0.00000	 400.0	 2	    1.05000	    0.95000;
	33	 1	 0.0	 0.0	 0.0	 0.0	 1	    1.03000	    0.00000	 220.0	 2	    1.11000	    0.95000;
	34	 1	 0.0	 0.0	 0.0	 0.0	 1	    1.00000	    0.00000	 400.0	 2	    1.05000	    0.95000;
	35	 1	 0.0	 0.0	 0.0	 0.0	 1	    1.00000	    0.00000	 400.0	 2	    1.05000	    0.95000;
	36	 1	 0.0	 0.0	 0.0	 0.0	 1	    1.00000	    0.00000	 400.0	 2	    1.05000	    0.95000;
	37	 1	 0.0	 0.0	 0.0	 0.0	 1	    1.03000	    0.00000	 220.0	 2	    1.11000	    0.95000;
	38	 1	 0.0	 0.0	 0.0	 0.0	 1	    1.03000	    0.00000	 220.0	 2	    1.11000	    0.95000;
	39	 1	 0.0	 0.0	 0.0	 0.0	 1	    1.00000	    0.00000	 400.0	 2	    1.05000	    0.95000;
	40	 1	 0.0	 0.0	 0.0	 0.0	 1	    1.00000	    0.00000	 400.0	 2	    1.05000	    0.95000;
	41	 2	 12.50	 30.00	 0.0	 0.0	 1	    1.03000	    0.00000	 220.0	 2	    1.11000	    0.95000;
	42	 2	 12.50	 30.00	 0.0	 0.0	 1	    1.03000	    0.00000	 220.0	 2	    1.11000	    0.95000;
	43	 2	 25.00	 60.00	 0.0	 0.0	 1	    1.00000	    0.00000	 400.0	 2	    1.05000	    0.95000;
	44	 2	 25.00	 60.00	 0.0	 0.0	 1	    1.00000	    0.00000	 400.0	 2	    1.05000	    0.95000;
	45	 2	 166.65	 75.00	 0.0	 0.0	 1	    1.03000	    0.00000	 220.0	 2	    1.11000	    0.95000;
	46	 1	 0.0	 0.0	 0.0	 0.0	 1	    1.03000	    0.00000	 220.0	 2	    1.11000	    0.95000;
	47	 1	 0.0	 0.0	 0.0	 0.0	 1	    1.03000	    0.00000	 220.0	 2	    1.11000	    0.95000;
	48	 1	 0.0	 0.0	 0.0	 0.0	 1	    1.03000	    0.00000	 220.0	 2	    1.11000	    0.95000;
	49	 1	 0.0	 0.0	 0.0	 0.0	 1	    1.03000	    0.00000	 220.0	 2	    1.11000	    0.95000;
	50	 1	 0.0	 0.0	 0.0	 0.0	 1	    1.00000	    0.00000	 400.0	 2	    1.05000	    0.95000;
	51	 1	 0.0	 0.0	 0.0	 0.0	 1	    1.00000	    0.00000	 400.0	 2	    1.05000	    0.95000;
	52	 1	 0.0	 0.0	 0.0	 0.0	 1	    1.03000	    0.00000	 220.0	 2	    1.11000	    0.95000;
	53	 1	 0.0	 0.0	 0.0	 0.0	 1	    1.03000	    0.00000	 220.0	 2	    1.11000	    0.95000;
	54	 1	 0.0	 0.0	 0.0	 0.0	 1	    1.03000	    0.00000	 220.0	 2	    1.11000	    0.95000;
	55	 1	 0.0	 0.0	 0.0	 0.0	 1	    1.03000	    0.00000	 220.0	 2	    1.11000	    0.95000;
	56	 1	 0.0	 0.0	 0.0	 0.0	 1	    1.03000	    0.00000	 220.0	 3	    1.11000	    0.95000;
	57	 1	 23.96	 10.96	 0.0	 0.0	 1	    1.03000	    0.00000	 220.0	 3	    1.11000	    0.95000;
	58	 1	 22.92	 5.79	 0.0	 0.0	 1	    1.03000	    0.00000	 220.0	 3	    1.11000	    0.95000;
	59	 1	 0.0	 0.0	 0.0	 0.0	 1	    1.03000	    0.00000	 220.0	 3	    1.11000	    0.95000;
	60	 1	 0.0	 0.0	 0.0	 0.0	 1	    1.03000	    0.00000	 220.0	 3	    1.11000	    0.95000;
	61	 1	 0.0	 0.0	 0.0	 0.0	 1	    1.03000	    0.00000	 220.0	 3	    1.11000	    0.95000;
	62	 1	 0.0	 0.0	 0.0	 0.0	 1	    1.03000	    0.00000	 220.0	 3	    1.11000	    0.95000;
	63	 2	 38.96	 52.69	 0.0	 0.0	 1	    1.03000	    0.00000	 220.0	 3	    1.11000	    0.95000;
	64	 2	 36.88	 55.32	 0.0	 0.0	 1	    1.03000	    0.00000	 220.0	 3	    1.11000	    0.95000;
	65	 1	 13.96	 2.02	 0.0	 0.0	 1	    1.03000	    0.00000	 220.0	 3	    1.11000	    0.95000;
	66	 1	 0.0	 0.0	 0.0	 0.0	 1	    1.03000	    0.00000	 220.0	 3	    1.11000	    0.95000;
	67	 2	 62.97	 92.10	 0.0	 0.0	 1	    1.00000	    0.00000	 400.0	 3	    1.05000	    0.95000;
	68	 1	 0.0	 0.0	 0.0	 0.0	 1	    1.03000	    0.00000	 220.0	 3	    1.11000	    0.95000;
	69	 1	 0.0	 0.0	 0.0	 0.0	 1	    1.03000	    0.00000	 220.0	 3	    1.11000	    0.95000;
	70	 1	 0.0	 0.0	 0.0	 0.0	 1	    1.03000	    0.00000	 220.0	 3	    1.11000	    0.95000;
	71	 1	 0.0	 0.0	 0.0	 0.0	 1	    1.03000	    0.00000	 220.0	 3	    1.11000	    0.95000;
	72	 1	 0.0	 0.0	 0.0	 0.0	 1	    1.03000	    0.00000	 220.0	 3	    1.11000	    0.95000;
	73	 1	 0.0	 0.0	 0.0	 0.0	 1	    1.03000	    0.00000	 220.0	 3	    1.11000	    0.95000;
	74	 1	 0.0	 0.0	 0.0	 0.0	 1	    1.03000	    0.00000	 220.0	 3	    1.11000	    0.95000;
	75	 1	 0.0	 0.0	 0.0	 0.0	 1	    1.00000	    0.00000	 400.0	 3	    1.05000	    0.95000;
	76	 1	 0.0	 0.0	 0.0	 0.0	 1	    1.00000	    0.00000	 400.0	 3	    1.05000	    0.95000;
	77	 1	 0.0	 0.0	 0.0	 0.0	 1	    1.03000	    0.00000	 220.0	 3	    1.11000	    0.95000;
	78	 1	 0.0	 0.0	 0.0	 0.0	 1	    1.03000	    0.00000	 220.0	 3	    1.11000	    0.95000;
	79	 1	 0.0	 0.0	 0.0	 0.0	 1	    1.03000	    0.00000	 220.0	 3	    1.11000	    0.95000;
	80	 1	 0.0	 0.0	 0.0	 0.0	 1	    1.03000	    0.00000	 220.0	 3	    1.11000	    0.95000;
	81	 1	 0.0	 0.0	 0.0	 0.0	 1	    1.03000	    0.00000	 220.0	 3	    1.11000	    0.95000;
	82	 1	 0.0	 0.0	 0.0	 0.0	 1	    1.03000	    0.00000	 220.0	 3	    1.11000	    0.95000;
	83	 2	 16.67	 22.97	 0.0	 0.0	 1	    1.03000	    0.00000	 220.0	 3	    1.11000	    0.95000;
	84	 2	 16.46	 22.27	 0.0	 0.0	 1	    1.03000	    0.00000	 220.0	 3	    1.11000	    0.95000;
	85	 2	 10.42	 17.01	 0.0	 0.0	 1	    1.03000	    0.00000	 220.0	 3	    1.11000	    0.95000;
	86	 2	 10.42	 16.66	 0.0	 0.0	 1	    1.03000	    0.00000	 220.0	 3	    1.11000	    0.95000;
	87	 1	 11.56	 16.22	 0.0	 0.0	 1	    1.03000	    0.00000	 220.0	 3	    1.11000	    0.95000;
	88	 1	 0.0	 0.0	 0.0	 0.0	 1	    1.03000	    0.00000	 220.0	 3	    1.11000	    0.95000;
	89	 1	 0.0	 0.0	 0.0	 0.0	 1	    1.03000	    0.00000	 220.0	 3	    1.11000	    0.95000;
	90	 1	 0.0	 0.0	 0.0	 0.0	 1	    1.03000	    0.00000	 220.0	 3	    1.11000	    0.95000;
	91	 1	 0.0	 0.0	 0.0	 0.0	 1	    1.03000	    0.00000	 220.0	 3	    1.11000	    0.95000;
	92	 1	 0.0	 0.0	 0.0	 0.0	 1	    1.00000	    0.00000	 400.0	 3	    1.05000	    0.95000;
	93	 2	 10.42	 16.39	 0.0	 0.0	 1	    1.03000	    0.00000	 220.0	 3	    1.11000	    0.95000;
	94	 1	 0.0	 0.0	 0.0	 0.0	 1	    1.03000	    0.00000	 220.0	 3	    1.11000	    0.95000;
	95	 2	 7.18	 8.15	 0.0	 0.0	 1	    1.03000	    0.00000	 220.0	 3	    1.11000	    0.95000;
	96	 1	 0.0	 0.0	 0.0	 0.0	 1	    1.03000	    0.00000	 220.0	 3	    1.11000	    0.95000;
	97	 2	 9.06	 5.26	 0.0	 0.0	 1	    1.03000	    0.00000	 220.0	 3	    1.11000	    0.95000;
	98	 1	 0.0	 0.0	 0.0	 0.0	 1	    1.00000	    0.00000	 400.0	 3	    1.05000	    0.95000;
	99	 1	 0.0	 0.0	 0.0	 0.0	 1	    1.00000	    0.00000	 400.0	 3	    1.05000	    0.95000;
	100	 1	 0.0	 0.0	 0.0	 0.0	 1	    1.00000	    0.00000	 400.0	 3	    1.05000	    0.95000;
	101	 1	 0.0	 0.0	 0.0	 0.0	 1	    1.00000	    0.00000	 400.0	 3	    1.05000	    0.95000;
	102	 1	 0.0	 0.0	 0.0	 0.0	 1	    1.03000	    0.00000	 220.0	 3	    1.11000	    0.95000;
	103	 2	 18.86	 23.76	 0.0	 0.0	 1	    1.03000	    0.00000	 220.0	 3	    1.11000	    0.95000;
	104	 2	 35.12	 46.11	 0.0	 0.0	 1	    1.03000	    0.00000	 220.0	 3	    1.11000	    0.95000;
	105	 2	 35.22	 62.95	 0.0	 0.0	 1	    1.00000	    0.00000	 400.0	 3	    1.05000	    0.95000;
	106	 1	 0.0	 0.0	 0.0	 0.0	 1	    1.00000	    0.00000	 400.0	 3	    1.05000	    0.95000;
	107	 1	 0.0	 0.0	 0.0	 0.0	 1	    1.03000	    0.00000	 220.0	 3	    1.11000	    0.95000;
	108	 1	 0.0	 0.0	 0.0	 0.0	 1	    1.03000	    0.00000	 220.0	 3	    1.11000	    0.95000;
	109	 2	 1.04	 22.36	 0.0	 0.0	 1	    1.03000	    0.00000	 220.0	 3	    1.11000	    0.95000;
	110	 2	 1.04	 22.18	 0.0	 0.0	 1	    1.03000	    0.00000	 220.0	 3	    1.11000	    0.95000;
	111	 2	 27.62	 18.00	 0.0	 0.0	 1	    1.03000	    0.00000	 220.0	 4	    1.11000	    0.95000;
	112	 1	 0.0	 0.0	 0.0	 0.0	 1	    1.03000	    0.00000	 220.0	 4	    1.11000	    0.95000;
	113	 1	 0.0	 0.0	 0.0	 0.0	 1	    1.03000	    0.00000	 220.0	 4	    1.11000	    0.95000;
	114	 1	 0.0	 0.0	 0.0	 0.0	 1	    1.03000	    0.00000	 220.0	 4	    1.11000	    0.95000;
	115	 1	 0.0	 0.0	 0.0	 0.0	 1	    1.00000	    0.00000	 400.0	 4	    1.05000	    0.95000;
	116	 1	 0.0	 0.0	 0.0	 0.0	 1	    1.00000	    0.00000	 400.0	 4	    1.05000	    0.95000;
	117	 1	 0.0	 0.0	 0.0	 0.0	 1	    1.03000	    0.00000	 220.0	 4	    1.11000	    0.95000;
	118	 1	 0.0	 0.0	 0.0	 0.0	 1	    1.03000	    0.00000	 220.0	 4	    1.11000	    0.95000;
	119	 1	 0.0	 0.0	 0.0	 0.0	 1	    1.03000	    0.00000	 220.0	 4	    1.11000	    0.95000;
	120	 1	 0.0	 0.0	 0.0	 0.0	 1	    1.03000	    0.00000	 220.0	 4	    1.11000	    0.95000;
	121	 1	 0.0	 0.0	 0.0	 0.0	 1	    1.03000	    0.00000	 220.0	 4	    1.11000	    0.95000;
	122	 1	 0.0	 0.0	 0.0	 0.0	 1	    1.03000	    0.00000	 220.0	 4	    1.11000	    0.95000;
	123	 2	 5.73	 7.00	 0.0	 0.0	 1	    1.03000	    0.00000	 220.0	 4	    1.11000	    0.95000;
	124	 2	 9.16	 17.00	 0.0	 0.0	 1	    1.03000	    0.00000	 220.0	 4	    1.11000	    0.95000;
	125	 2	 37.22	 18.30	 0.0	 0.0	 1	    1.03000	    0.00000	 220.0	 4	    1.11000	    0.95000;
	126	 1	 26.36	 15.90	 0.0	 0.0	 1	    1.03000	    0.00000	 220.0	 4	    1.11000	    0.95000;
	127	 2	 26.81	 15.30	 0.0	 0.0	 1	    1.00000	    0.00000	 400.0	 4	    1.05000	    0.95000;
	128	 1	 0.0	 0.0	 0.0	 0.0	 1	    1.00000	    0.00000	 400.0	 4	    1.05000	    0.95000;
	129	 1	 0.0	 0.0	 0.0	 0.0	 1	    1.03000	    0.00000	 220.0	 4	    1.11000	    0.95000;
	130	 1	 0.0	 0.0	 0.0	 0.0	 1	    1.03000	    0.00000	 220.0	 4	    1.11000	    0.95000;
	131	 2	 71.60	 70.00	 0.0	 0.0	 1	    1.03000	    0.00000	 220.0	 4	    1.11000	    0.95000;
	132	 2	 34.41	 45.00	 0.0	 0.0	 1	    1.03000	    0.00000	 220.0	 4	    1.11000	    0.95000;
	133	 1	 0.0	 0.0	 0.0	 0.0	 1	    1.00000	    0.00000	 400.0	 4	    1.05000	    0.95000;
	134	 1	 0.0	 0.0	 0.0	 0.0	 1	    1.00000	    0.00000	 400.0	 4	    1.05000	    0.95000;
	135	 1	 0.0	 0.0	 0.0	 0.0	 1	    1.03000	    0.00000	 220.0	 4	    1.11000	    0.95000;
	136	 1	 0.0	 0.0	 0.0	 0.0	 1	    1.03000	    0.00000	 220.0	 4	    1.11000	    0.95000;
	137	 1	 0.0	 0.0	 0.0	 0.0	 1	    1.00000	    0.00000	 400.0	 4	    1.05000	    0.95000;
	138	 1	 0.0	 0.0	 0.0	 0.0	 1	    1.00000	    0.00000	 400.0	 4	    1.05000	    0.95000;
	139	 2	 34.61	 22.60	 0.0	 0.0	 1	    1.03000	    0.00000	 220.0	 4	    1.11000	    0.95000;
	140	 2	 30.48	 19.60	 0.0	 0.0	 1	    1.03000	    0.00000	 220.0	 4	    1.11000	    0.95000;
	141	 1	 0.0	 0.0	 0.0	 0.0	 1	    1.03000	    0.00000	 220.0	 4	    1.11000	    0.95000;
	142	 1	 0.0	 0.0	 0.0	 0.0	 1	    1.03000	    0.00000	 220.0	 4	    1.11000	    0.95000;
	143	 1	 0.0	 0.0	 0.0	 0.0	 1	    1.03000	    0.00000	 220.0	 4	    1.11000	    0.95000;
	144	 1	 0.0	 0.0	 0.0	 0.0	 1	    1.03000	    0.00000	 220.0	 4	    1.11000	    0.95000;
	145	 1	 0.0	 0.0	 0.0	 0.0	 1	    1.00000	    0.00000	 400.0	 4	    1.05000	    0.95000;
	146	 1	 0.0	 0.0	 0.0	 0.0	 1	    1.00000	    0.00000	 400.0	 4	    1.05000	    0.95000;
	147	 1	 0.0	 0.0	 0.0	 0.0	 1	    1.03000	    0.00000	 220.0	 4	    1.11000	    0.95000;
	148	 1	 0.0	 0.0	 0.0	 0.0	 1	    1.03000	    0.00000	 220.0	 4	    1.11000	    0.95000;
	149	 1	 0.0	 0.0	 0.0	 0.0	 1	    1.03000	    0.00000	 220.0	 4	    1.11000	    0.95000;
	150	 1	 0.0	 0.0	 0.0	 0.0	 1	    1.03000	    0.00000	 220.0	 4	    1.11000	    0.95000;
	151	 1	 0.0	 0.0	 0.0	 0.0	 1	    1.03000	    0.00000	 220.0	 4	    1.11000	    0.95000;
	152	 1	 0.0	 0.0	 0.0	 0.0	 1	    1.03000	    0.00000	 220.0	 4	    1.11000	    0.95000;
	153	 1	 0.0	 0.0	 0.0	 0.0	 1	    1.03000	    0.00000	 220.0	 4	    1.11000	    0.95000;
	154	 1	 0.0	 0.0	 0.0	 0.0	 1	    1.03000	    0.00000	 220.0	 4	    1.11000	    0.95000;
	155	 1	 0.0	 0.0	 0.0	 0.0	 1	    1.03000	    0.00000	 220.0	 5	    1.11000	    0.95000;
	156	 1	 0.0	 0.0	 0.0	 0.0	 1	    1.03000	    0.00000	 220.0	 5	    1.11000	    0.95000;
	157	 1	 0.0	 0.0	 0.0	 0.0	 1	    1.00000	    0.00000	 400.0	 5	    1.05000	    0.95000;
	158	 1	 0.0	 0.0	 0.0	 0.0	 1	    1.00000	    0.00000	 400.0	 5	    1.05000	    0.95000;
	159	 1	 0.0	 0.0	 0.0	 0.0	 1	    1.00000	    0.00000	 400.0	 5	    1.05000	    0.95000;
	160	 1	 0.0	 0.0	 0.0	 0.0	 1	    1.00000	    0.00000	 400.0	 5	    1.05000	    0.95000;
	161	 1	 0.0	 0.0	 0.0	 0.0	 1	    1.03000	    0.00000	 220.0	 5	    1.11000	    0.95000;
	162	 1	 0.0	 0.0	 0.0	 0.0	 1	    1.03000	    0.00000	 220.0	 5	    1.11000	    0.95000;
	163	 1	 0.0	 0.0	 0.0	 0.0	 1	    1.03000	    0.00000	 220.0	 5	    1.11000	    0.95000;
	164	 1	 0.0	 0.0	 0.0	 0.0	 1	    1.03000	    0.00000	 220.0	 5	    1.11000	    0.95000;
	165	 1	 0.0	 0.0	 0.0	 0.0	 1	    1.00000	    0.00000	 400.0	 5	    1.05000	    0.95000;
	166	 1	 0.0	 0.0	 0.0	 0.0	 1	    1.03000	    0.00000	 220.0	 5	    1.11000	    0.95000;
	167	 1	 0.0	 0.0	 0.0	 0.0	 1	    1.03000	    0.00000	 220.0	 5	    1.11000	    0.95000;
	168	 1	 0.0	 0.0	 0.0	 0.0	 1	    1.00000	    0.00000	 400.0	 5	    1.05000	    0.95000;
	169	 1	 0.0	 0.0	 0.0	 0.0	 1	    1.00000	    0.00000	 400.0	 5	    1.05000	    0.95000;
	170	 1	 0.0	 0.0	 0.0	 0.0	 1	    1.03000	    0.00000	 220.0	 5	    1.11000	    0.95000;
	171	 1	 0.0	 0.0	 0.0	 0.0	 1	    1.03000	    0.00000	 220.0	 5	    1.11000	    0.95000;
	172	 1	 0.0	 0.0	 0.0	 0.0	 1	    1.03000	    0.00000	 220.0	 5	    1.11000	    0.95000;
	173	 1	 0.0	 0.0	 0.0	 0.0	 1	    1.03000	    0.00000	 220.0	 5	    1.11000	    0.95000;
	174	 1	 0.0	 0.0	 0.0	 0.0	 1	    1.03000	    0.00000	 220.0	 5	    1.11000	    0.95000;
	175	 1	 0.0	 0.0	 0.0	 0.0	 1	    1.03000	    0.00000	 220.0	 5	    1.11000	    0.95000;
	176	 2	 0.00	 40.00	 0.0	 0.0	 1	    1.00000	    0.00000	 400.0	 5	    1.05000	    0.95000;
	177	 2	 0.00	 40.00	 0.0	 0.0	 1	    1.00000	    0.00000	 400.0	 5	    1.05000	    0.95000;
	178	 1	 0.0	 0.0	 0.0	 0.0	 1	    1.03000	    0.00000	 220.0	 5	    1.11000	    0.95000;
	179	 1	 0.0	 0.0	 0.0	 0.0	 1	    1.03000	    0.00000	 220.0	 5	    1.11000	    0.95000;
	180	 2	 354.33	 49.60	 0.0	 0.0	 2	    1.00000	    0.00000	 400.0	 6	    1.05000	    0.95000;
	181	 2	 0.0	 0.0	 0.0	 0.0	 3	    1.03000	    0.00000	 220.0	 6	    1.11000	    0.95000;
	182	 2	 0.0	 0.0	 0.0	 0.0	 5	    1.00000	    0.00000	 400.0	 6	    1.05000	    0.95000;
	183	 1	 150.00	 0.00	 0.0	 0.0	 3	    1.00000	    0.00000	 400.0	 6	    1.05000	    0.95000;
	184	 2	 330.86	 50.30	 0.0	 0.0	 2	    1.03000	    0.00000	 220.0	 6	    1.11000	    0.95000;
	185	 2	 377.88	 36.70	 0.0	 0.0	 2	    1.00000	    0.00000	 400.0	 6	    1.05000	    0.95000;
	186	 2	 34.75	 1.00	 0.0	 0.0	 5	    1.03000	    0.00000	 220.0	 6	    1.11000	    0.95000;
	187	 1	 7.42	 1.50	 0.0	 0.0	 1	    1.03500	    0.00000	 110.0	 1	    1.12000	    0.95000;
	188	 1	 7.96	 1.00	 0.0	 0.0	 1	    1.03500	    0.00000	 110.0	 1	    1.12000	    0.95000;
	189	 1	 10.19	 8.70	 0.0	 0.0	 1	    1.03500	    0.00000	 110.0	 1	    1.12000	    0.95000;
	190	 1	 6.38	 1.50	 0.0	 0.0	 1	    1.03500	    0.00000	 110.0	 1	    1.12000	    0.95000;
	191	 1	 6.38	 1.60	 0.0	 0.0	 1	    1.03500	    0.00000	 110.0	 1	    1.12000	    0.95000;
	192	 2	 31.86	 12.00	 0.0	 0.0	 1	    1.03500	    0.00000	 110.0	 1	    1.12000	    0.95000;
	193	 1	 15.93	 3.00	 0.0	 0.0	 1	    1.03500	    0.00000	 110.0	 1	    1.12000	    0.95000;
	194	 1	 0.0	 0.0	 0.0	 0.0	 1	    1.03500	    0.00000	 110.0	 1	    1.12000	    0.95000;
	195	 1	 8.49	 2.00	 0.0	 0.0	 1	    1.03500	    0.00000	 110.0	 1	    1.12000	    0.95000;
	196	 2	 7.21	 1.50	 0.0	 0.0	 1	    1.03500	    0.00000	 110.0	 1	    1.12000	    0.95000;
	197	 1	 7.21	 1.50	 0.0	 0.0	 1	    1.03500	    0.00000	 110.0	 1	    1.12000	    0.95000;
	198	 2	 12.85	 1.70	 0.0	 0.0	 1	    1.03500	    0.00000	 110.0	 1	    1.12000	    0.95000;
	199	 1	 1.49	 0.50	 0.0	 0.0	 1	    1.03500	    0.00000	 110.0	 1	    1.12000	    0.95000;
	200	 1	 1.13	 0.50	 0.0	 0.0	 1	    1.03500	    0.00000	 110.0	 1	    1.12000	    0.95000;
...
];

%% generator data
%	bus	Pg	Qg	Qmax	Qmin	Vg	mBase	status	Pmax	Pmin
mpc.gen = [
	10	 124.0	 0.0	 240.0	 -240.0	 1.03	 168.0	 1	 213	 35.0; % NG
	16	 410.5	 29.5	 440.0	 -381.0	 1.03	 823.0	 1	 761	 60.0; % COW
	17	 325.5	 182.0	 660.0	 -296.0	 1.03	 1234.0	 1	 591	 60.0; % COW
	18	 603.0	 483.5	 1540.0	 -573.0	 1.0	 2879.0	 1	 1146	 60.0; % COW
	29	 280.5	 0.0	 263.0	 -263.0	 1.03	 511.0	 1	 526	 35.0; % NG
	30	 146.0	 55.5	 240.0	 -129.0	 1.03	 511.0	 1	 257	 35.0; % COW
	31	 285.0	 51.0	 350.0	 -248.0	 1.0	 420.0	 1	 495	 75.0; % COW
	41	 339.0	 0.0	 322.0	 -322.0	 1.03	 241.0	 1	 643	 35.0; % NG
	42	 327.5	 0.0	 310.0	 -310.0	 1.03	 241.0	 1	 620	 35.0; % NG
	43	 258.5	 0.0	 241.0	 -241.0	 1.0	 482.0	 1	 482	 35.0; % COW
	44	 228.5	 14.5	 240.0	 -211.0	 1.0	 482.0	 1	 422	 35.0; % NG
	45	 79.285	 0.0	 70.0	 -70.0	 1.03	 49.0	 1	 139	 19.57; % PEL
	63	 139.25	 99.5	 302.0	 -103.0	 1.03	 473.0	 1	 206	 72.5; % COW
	64	 201.25	 73.0	 311.0	 -165.0	 1.03	 475.0	 1	 330	 72.5; % COW
	67	 209.5	 14.5	 449.0	 -420.0	 1.0	 864.0	 1	 309	 110.0; % NG
	83	 148.5	 38.0	 190.0	 -114.0	 1.03	 239.0	 1	 227	 70.0; % COW
	84	 144.0	 40.5	 190.0	 -109.0	 1.03	 251.0	 1	 218	 70.0; % NG
	85	 56.5	 37.5	 125.0	 -50.0	 1.03	 133.0	 1	 93	 20.0; % NG
	86	 80.5	 12.1	 125.0	 -100.8	 1.03	 133.0	 1	 141	 20.0; % NG
	93	 200.5	 0.0	 181.0	 -181.0	 1.03	 123.0	 1	 361	 40.0; % COW
	95	 58.0	 11.0	 68.0	 -46.0	 1.03	 105.0	 1	 91	 25.0; % NG
	97	 74.315	 7.0	 68.0	 -54.0	 1.03	 105.0	 1	 107	 41.63; % PEL
	103	 142.5	 37.0	 177.0	 -103.0	 1.03	 239.0	 1	 205	 80.0; % NG
	104	 190.5	 101.0	 379.0	 -177.0	 1.03	 490.0	 1	 311	 70.0; % NG
	105	 254.0	 69.5	 353.0	 -214.0	 1.0	 502.0	 1	 428	 80.0; % NG
	109	 191.5	 0.0	 172.0	 -172.0	 1.03	 277.0	 1	 343	 40.0; % NG
	110	 79.0	 3.0	 65.0	 -59.0	 1.03	 280.0	 1	 118	 40.0; % NG
	111	 110.0	 85.0	 270.0	 -100.0	 1.03	 401.0	 1	 200	 20.0; % COW
	123	 72.0	 0.0	 67.0	 -67.0	 1.03	 98.0	 1	 134	 10.0; % NG
	124	 81.75	 9.5	 90.0	 -71.0	 1.03	 132.0	 1	 141	 22.5; % PEL
	125	 279.5	 44.4	 360.0	 -271.2	 1.03	 654.0	 1	 524	 35.0; % NUC
	127	 219.0	 23.4	 360.0	 -313.2	 1.0	 540.0	 1	 403	 35.0; % COW
	131	 184.5	 96.5	 360.0	 -167.0	 1.03	 696.0	 1	 334	 35.0; % COW
	132	 235.0	 131.0	 480.0	 -218.0	 1.03	 732.0	 1	 435	 35.0; % NUC
	139	 147.5	 115.0	 360.0	 -130.0	 1.03	 714.0	 1	 260	 35.0; % COW
	140	 298.5	 0.0	 281.0	 -281.0	 1.03	 240.0	 1	 562	 35.0; % COW
	176	 106.0	 50.0	 220.0	 -120.0	 1.0	 430.0	 1	 177	 35.0; % COW
	177	 190.0	 23.5	 220.0	 -173.0	 1.0	 430.0	 1	 345	 35.0; % NG
	180	 0.0	 0.0	 129.6	 -129.6	 1.0	 7485.0	 1	 0	 0.0; % SYNC
	181	 143.0	 0.0	 100.0	 -100.0	 1.03	 210.0	 1	 199	 87.0; % NG
	182	 336.5	 0.0	 386.4	 -386.4	 1.0	 13465.0	 1	 520	 153.0; % NG
	184	 0.0	 0.0	 208.7361	 -208.7361	 1.03	 8353.0	 1	 0	 0.0; % SYNC
	185	 0.0	 0.0	 114.0	 -114.0	 1.0	 14254.0	 1	 0	 0.0; % SYNC
	186	 0.0	 0.0	 96.2922	 -96.2922	 1.03	 7401.0	 1	 0	 0.0; % SYNC
	192	 100.0625	 0.0	 78.0	 -78.0	 1.035	 114.0	 1	 155	 45.125; % NG
	196	 26.715	 0.0	 27.0	 -27.0	 1.035	 1.0	 1	 53	 0.43; % PEL
	198	 62.19	 0.0	 62.0	 -62.0	 1.035	 1.0	 1	 124	 0.38; % NG
	205	 33.5625	 0.0	 30.0	 -30.0	 1.035	 18.0	 1	 60	 7.125; % NG
	213	 142.6125	 0.0	 140.0	 -140.0	 1.035	 13.0	 1	 280	 5.225; % NG
	264	 36.595	 0.0	 36.0	 -36.0	 1.035	 3.0	 1	 72	 1.19; % PEL
	269	 49.925	 0.0	 49.0	 -49.0	 1.035	 7.0	 1	 97	 2.85; % NG
	277	 97.625	 0.0	 81.0	 -81.0	 1.035	 84.0	 1	 162	 33.25; % PEL
	278	 148.25	 0.0	 134.0	 -134.0	 1.035	 72.0	 1	 268	 28.5; % NG
	279	 97.25	 0.0	 83.0	 -83.0	 1.035	 72.0	 1	 166	 28.5; % NG
	281	 154.5	 0.0	 126.0	 -126.0	 1.035	 144.0	 1	 252	 57.0; % NG
	282	 61.5	 0.0	 52.0	 -52.0	 1.035	 48.0	 1	 104	 19.0; % PEL
	289	 51.095	 0.0	 51.0	 -51.0	 1.035	 3.0	 1	 101	 1.19; % PEL
	294	 84.475	 0.0	 84.0	 -84.0	 1.035	 2.0	 1	 168	 0.95; % PEL
	314	 32.3575	 0.0	 32.0	 -32.0	 1.035	 2.0	 1	 64	 0.715; % PEL
	328	 47.95	 0.0	 38.0	 -38.0	 1.035	 53.0	 1	 75	 20.9; % NG
	329	 80.95	 0.0	 71.0	 -71.0	 1.035	 53.0	 1	 141	 20.9; % NG
	330	 86.45	 0.0	 76.0	 -76.0	 1.035	 53.0	 1	 152	 20.9; % NG
	331	 165.2125	 0.0	 155.0	 -155.0	 1.035	 52.0	 1	 310	 20.425; % NG
	334	 51.8575	 0.0	 52.0	 -52.0	 1.035	 2.0	 1	 103	 0.715; % NG
	346	 75.5	 31.0	 120.0	 -58.0	 1.035	 180.0	 1	 116	 35.0; % NG
	347	 187.0	 0.0	 185.0	 -185.0	 1.035	 12.0	 1	 369	 5.0; % NG
	359	 58.8575	 0.0	 59.0	 -59.0	 1.035	 2.0	 1	 117	 0.715; % NG
	365	 35.7125	 0.0	 35.0	 -35.0	 1.035	 6.0	 1	 69	 2.425; % COW
	382	 33.4	 0.0	 32.0	 -32.0	 1.035	 10.0	 1	 63	 3.8; % COW
	383	 62.4	 0.0	 61.0	 -61.0	 1.035	 10.0	 1	 121	 3.8; % COW
	385	 87.925	 0.0	 87.0	 -87.0	 1.035	 7.0	 1	 173	 2.85; % PEL
	390	 72.07	 0.0	 71.0	 -71.0	 1.035	 5.0	 1	 142	 2.14; % NG
	395	 56.375	 0.0	 54.0	 -54.0	 1.035	 12.0	 1	 108	 4.75; % NG
	404	 99.7125	 0.0	 99.0	 -99.0	 1.035	 4.0	 1	 198	 1.425; % PEL
	426	 90.26	 0.0	 90.0	 -90.0	 1.035	 4.0	 1	 179	 1.52; % PEL
	444	 115.2375	 0.0	 115.0	 -115.0	 1.035	 1.0	 1	 230	 0.475; % NG
	451	 49.57	 0.0	 49.0	 -49.0	 1.035	 5.0	 1	 97	 2.14; % NG
	482	 64.2375	 0.0	 64.0	 -64.0	 1.035	 1.0	 1	 128	 0.475; % NG
	492	 35.975	 0.0	 36.0	 -36.0	 1.035	 2.0	 1	 71	 0.95; % PEL
	493	 241.575	 0.0	 186.0	 -186.0	 1.035	 281.0	 1	 372	 111.15; % NG
	494	 221.075	 0.0	 166.0	 -166.0	 1.035	 281.0	 1	 331	 111.15; % COW
	514	 146.8125	 0.0	 120.0	 -120.0	 1.035	 138.0	 1	 239	 54.625; % NG
	515	 200.3125	 0.0	 173.0	 -173.0	 1.035	 138.0	 1	 346	 54.625; % NG
	525	 91.425	 0.0	 90.0	 -90.0	 1.035	 7.0	 1	 180	 2.85; % NG
	536	 116.425	 0.0	 115.0	 -115.0	 1.035	 7.0	 1	 230	 2.85; % PEL
	537	 72.8325	 0.0	 72.0	 -72.0	 1.035	 4.0	 1	 144	 1.665; % NG
	556	 21.6425	 0.0	 21.0	 -21.0	 1.035	 3.0	 1	 42	 1.285; % PEL
	580	 35.88	 0.0	 36.0	 -36.0	 1.035	 2.0	 1	 71	 0.76; % PEL
	584	 14.1425	 0.0	 14.0	 -14.0	 1.035	 3.0	 1	 27	 1.285; % PEL
	585	 21.45	 0.0	 21.0	 -21.0	 1.035	 5.0	 1	 41	 1.9; % NG
	607	 33.19	 0.0	 33.0	 -33.0	 1.035	 1.0	 1	 66	 0.38; % PEL
	612	 182.0	 0.0	 165.0	 -165.0	 1.035	 256.0	 1	 329	 35.0; % NG
	613	 160.0	 0.0	 143.0	 -143.0	 1.035	 256.0	 1	 285	 35.0; % NG
	615	 116.3325	 0.0	 116.0	 -116.0	 1.035	 2.0	 1	 232	 0.665; % NG
	623	 50.305	 0.0	 49.0	 -49.0	 1.035	 9.0	 1	 97	 3.61; % NG
	639	 80.28	 0.0	 78.0	 -78.0	 1.035	 12.0	 1	 156	 4.56; % COW
	651	 98.6175	 0.0	 98.0	 -98.0	 1.035	 6.0	 1	 195	 2.235; % PEL
	654	 80.8325	 0.0	 81.0	 -81.0	 1.035	 2.0	 1	 161	 0.665; % NG
	664	 31.9725	 0.0	 31.0	 -31.0	 1.035	 7.0	 1	 61	 2.945; % NG
	670	 46.1425	 0.0	 46.0	 -46.0	 1.035	 3.0	 1	 91	 1.285; % PEL
	674	 48.2375	 0.0	 48.0	 -48.0	 1.035	 1.0	 1	 96	 0.475; % NG
	688	 82.5	 27.5	 120.0	 -65.0	 1.035	 242.0	 1	 130	 35.0; % NG
	692	 29.8325	 0.0	 30.0	 -30.0	 1.035	 2.0	 1	 59	 0.665; % PEL
	699	 59.9025	 0.0	 59.0	 -59.0	 1.035	 5.0	 1	 118	 1.805; % NG
	712	 36.785	 0.0	 37.0	 -37.0	 1.035	 1.0	 1	 73	 0.57; % PEL
	730	 52.64	 0.0	 51.0	 -51.0	 1.035	 8.0	 1	 102	 3.28; % NG
	732	 38.2625	 0.0	 38.0	 -38.0	 1.035	 1.0	 1	 76	 0.525; % PEL
	735	 46.975	 0.0	 46.0	 -46.0	 1.035	 5.0	 1	 92	 1.95; % NG
	740	 28.45	 0.0	 32.4	 -32.4	 1.035	 5.0	 1	 55	 1.9; % NG
	744	 229.825	 0.0	 198.0	 -198.0	 1.035	 161.0	 1	 396	 63.65; % NG
	754	 87.5	 0.0	 85.0	 -85.0	 1.035	 54.0	 1	 170	 5.0; % NG
	755	 118.25	 0.0	 97.0	 -97.0	 1.035	 110.0	 1	 194	 42.5; % NG
	760	 53.2375	 0.0	 53.0	 -53.0	 1.035	 4.0	 1	 105	 1.475; % COW
	766	 32.0	 0.0	 32.0	 -32.0	 1.035	 3.0	 1	 63	 1.0; % PEL
	784	 48.1675	 0.0	 48.0	 -48.0	 1.035	 1.0	 1	 96	 0.335; % PEL
	790	 54.8275	 0.0	 43.0	 -43.0	 1.035	 60.0	 1	 86	 23.655; % NG
	795	 116.45	 0.0	 116.0	 -116.0	 1.035	 2.0	 1	 232	 0.9; % PEL
	798	 49.71	 0.0	 49.0	 -49.0	 1.035	 4.0	 1	 98	 1.42; % NG
	814	 118.1675	 0.0	 108.0	 -108.0	 1.035	 54.0	 1	 215	 21.335; % NG
	834	 90.25	 0.0	 85.0	 -85.0	 1.035	 110.0	 1	 169	 11.5; % NG
	878	 32.21	 0.0	 32.0	 -32.0	 1.035	 4.0	 1	 63	 1.42; % PEL
	884	 37.5925	 0.0	 37.0	 -37.0	 1.035	 3.0	 1	 74	 1.185; % PEL
	892	 50.07	 0.0	 43.0	 -43.0	 1.035	 38.0	 1	 85	 15.14; % NG
	895	 45.1275	 0.0	 43.0	 -43.0	 1.035	 11.0	 1	 86	 4.255; % NG
	901	 82.875	 0.0	 82.0	 -82.0	 1.035	 4.0	 1	 164	 1.75; % NG
	910	 40.0875	 0.0	 39.0	 -39.0	 1.035	 6.0	 1	 78	 2.175; % NG
	911	 450.0	 0.0	 380.0	 -380.0	 1.035	 415.0	 1	 760	 140.0; % COW
	912	 227.5	 33.0	 224.0	 -158.0	 1.035	 415.0	 1	 315	 140.0; % NG
	914	 62.2825	 0.0	 59.0	 -59.0	 1.035	 19.0	 1	 117	 7.565; % COW
	917	 69.9975	 0.0	 70.0	 -70.0	 1.035	 3.0	 1	 139	 0.995; % PEL
	919	 49.2025	 0.0	 44.0	 -44.0	 1.035	 26.0	 1	 88	 10.405; % PEL
	920	 39.4725	 0.0	 39.0	 -39.0	 1.035	 2.0	 1	 78	 0.945; % PEL
	929	 142.635	 0.0	 128.0	 -128.0	 1.035	 77.0	 1	 255	 30.27; % NG
	959	 69.0925	 0.0	 69.0	 -69.0	 1.035	 3.0	 1	 137	 1.185; % NG
	968	 23.6675	 0.0	 24.0	 -24.0	 1.035	 1.0	 1	 47	 0.335; % NG
	993	 30.445	 0.0	 30.0	 -30.0	 1.035	 5.0	 1	 59	 1.89; % NG
	994	 16.4725	 0.0	 16.0	 -16.0	 1.035	 2.0	 1	 32	 0.945; % PEL
	995	 80.0	 0.0	 75.0	 -75.0	 1.035	 60.0	 1	 150	 10.0; % NG
	996	 77.0	 0.0	 72.0	 -72.0	 1.035	 60.0	 1	 144	 10.0; % PEL
	997	 213.0	 0.0	 208.0	 -208.0	 1.035	 60.0	 1	 416	 10.0; % NG
	1004	 47.0175	 0.0	 46.0	 -46.0	 1.035	 5.0	 1	 92	 2.035; % PEL
	1024	 14.525	 0.0	 15.0	 -15.0	 1.035	 0.0	 1	 29	 0.05; % PEL
	1027	 70.915	 0.0	 65.0	 -65.0	 1.035	 30.0	 1	 130	 11.83; % PEL
	1028	 43.21	 0.0	 43.0	 -43.0	 1.035	 4.0	 1	 85	 1.42; % NG
	1029	 97.415	 0.0	 92.0	 -92.0	 1.035	 30.0	 1	 183	 11.83; % PEL
	1053	 117.1925	 0.0	 103.0	 -103.0	 1.035	 72.0	 1	 206	 28.385; % NG
	1054	 92.5975	 0.0	 86.0	 -86.0	 1.035	 36.0	 1	 171	 14.195; % PEL
	1105	 19.8925	 0.0	 18.0	 -18.0	 1.035	 10.0	 1	 36	 3.785; % NG
	1106	 68.44	 0.0	 63.0	 -63.0	 1.035	 28.0	 1	 126	 10.88; % PEL
	1107	 136.0075	 0.0	 134.0	 -134.0	 1.035	 13.0	 1	 267	 5.015; % NG
	1138	 60.645	 0.0	 50.0	 -50.0	 1.035	 54.0	 1	 100	 21.29; % NG
	1140	 390.0	 0.0	 373.0	 -373.0	 1.035	 252.0	 1	 745	 35.0; % COW
	1141	 130.5	 38.5	 190.0	 -113.0	 1.035	 251.0	 1	 226	 35.0; % NG
	1175	 111.9875	 0.0	 103.0	 -103.0	 1.035	 45.0	 1	 206	 17.975; % NG
	1182	 87.0	 24.0	 125.0	 -77.0	 1.035	 133.0	 1	 154	 20.0; % NG
	1183	 59.0	 37.5	 125.0	 -50.0	 1.035	 133.0	 1	 98	 20.0; % NG
	1184	 277.0	 0.0	 267.0	 -267.0	 1.035	 133.0	 1	 534	 20.0; % NG
	1191	 103.8075	 25.0	 129.0	 -79.0	 1.035	 128.0	 1	 157	 50.615; % NG
	1192	 109.5	 17.5	 125.0	 -90.0	 1.035	 123.0	 1	 179	 40.0; % NG
	1201	 151.6525	 0.0	 128.0	 -128.0	 1.035	 120.0	 1	 256	 47.305; % NG
	1202	 100.6525	 6.5	 90.0	 -77.0	 1.035	 120.0	 1	 154	 47.305; % NG
	1203	 143.6525	 0.0	 120.0	 -120.0	 1.035	 120.0	 1	 240	 47.305; % NG
	1232	 91.3	 0.0	 79.0	 -79.0	 1.035	 62.0	 1	 158	 24.6; % NG
	1233	 101.5475	 0.0	 98.0	 -98.0	 1.035	 18.0	 1	 196	 7.095; % PEL
	1244	 48.4925	 0.0	 44.0	 -44.0	 1.035	 23.0	 1	 88	 8.985; % NG
	1247	 69.7825	 0.0	 66.0	 -66.0	 1.035	 19.0	 1	 132	 7.565; % NG
	1250	 253.3325	 0.0	 207.0	 -207.0	 1.035	 237.0	 1	 413	 93.665; % NG
	1268	 91.62	 0.0	 92.0	 -92.0	 1.035	 1.0	 1	 183	 0.24; % NG
	1316	 4.7375	 0.0	 5.0	 -5.0	 1.035	 1.0	 1	 9	 0.475; % NG
	1325	 37.83	 0.0	 38.0	 -38.0	 1.035	 2.0	 1	 75	 0.66; % NG
	1349	 63.855	 0.0	 64.0	 -64.0	 1.035	 2.0	 1	 127	 0.71; % NG
	1356	 56.7375	 0.0	 57.0	 -57.0	 1.035	 1.0	 1	 113	 0.475; % NG
	1359	 63.19	 0.0	 63.0	 -63.0	 1.035	 1.0	 1	 126	 0.38; % NG
	1393	 109.0275	 0.0	 106.0	 -106.0	 1.035	 15.0	 1	 212	 6.055; % NG
	1403	 26.0175	 0.0	 25.0	 -25.0	 1.035	 5.0	 1	 50	 2.035; % PEL
	1416	 90.0	 55.0	 180.0	 -70.0	 1.035	 246.0	 1	 140	 40.0; % NG
	1417	 73.5	 33.0	 120.0	 -54.0	 1.035	 123.0	 1	 107	 40.0; % NG
	1418	 25.75	 18.0	 90.0	 -54.0	 1.035	 123.0	 1	 49	 2.5; % PEL
	1426	 56.0	 8.5	 68.0	 -51.0	 1.035	 106.0	 1	 102	 10.0; % NG
	1429	 32.0475	 0.0	 32.0	 -32.0	 1.035	 0.0	 1	 64	 0.095; % NG
	1469	 44.1425	 0.0	 44.0	 -44.0	 1.035	 1.0	 1	 88	 0.285; % PEL
	1475	 47.9975	 0.0	 48.0	 -48.0	 1.035	 3.0	 1	 95	 0.995; % PEL
	1504	 134.9025	 0.0	 128.0	 -128.0	 1.035	 37.0	 1	 255	 14.805; % NG
	1505	 58.59	 0.0	 47.0	 -47.0	 1.035	 59.0	 1	 94	 23.18; % NG
	1514	 75.545	 0.0	 75.0	 -75.0	 1.035	 3.0	 1	 150	 1.09; % PEL
	1534	 31.5725	 0.0	 32.0	 -32.0	 1.035	 0.0	 1	 63	 0.145; % PEL
	1536	 146.5	 41.5	 190.0	 -107.0	 1.035	 251.0	 1	 213	 80.0; % NG
	1537	 133.0	 54.0	 203.0	 -95.0	 1.035	 255.0	 1	 186	 80.0; % NG
	1538	 89.5	 50.5	 190.0	 -89.0	 1.035	 255.0	 1	 144	 35.0; % NG
	1542	 34.1275	 0.0	 32.0	 -32.0	 1.035	 11.0	 1	 64	 4.255; % NG
	1543	 28.285	 0.0	 28.0	 -28.0	 1.035	 1.0	 1	 56	 0.57; % PEL
	1550	 24.925	 0.0	 25.0	 -25.0	 1.035	 2.0	 1	 49	 0.85; % PEL
	1566	 67.5075	 0.0	 55.0	 -55.0	 1.035	 66.0	 1	 109	 26.015; % NG
	1587	 219.6375	 0.0	 205.0	 -205.0	 1.035	 77.0	 1	 409	 30.275; % NG
	1600	 56.64	 0.0	 53.0	 -53.0	 1.035	 21.0	 1	 105	 8.28; % PEL
	1602	 100.5	 0.0	 91.0	 -91.0	 1.035	 144.0	 1	 181	 20.0; % COW
	1603	 128.0	 0.0	 118.0	 -118.0	 1.035	 144.0	 1	 236	 20.0; % NG
	1609	 23.5725	 0.0	 24.0	 -24.0	 1.035	 0.0	 1	 47	 0.145; % PEL
	1617	 49.975	 0.0	 50.0	 -50.0	 1.035	 2.0	 1	 99	 0.95; % PEL
	1620	 34.88	 0.0	 35.0	 -35.0	 1.035	 2.0	 1	 69	 0.76; % PEL
...
];

%% generator cost data
%	2	startup	shutdown	n	c(n-1)	...	c0
mpc.gencost = [
	2	 0.0	 0.0	 3	   0.000000	 117.950000	   0.000000; % NG
	2	 0.0	 0.0	 3	   0.000000	  48.890000	   0.000000; % COW
	2	 0.0	 0.0	 3	   0.000000	  98.470000	   0.000000; % COW
	2	 0.0	 0.0	 3	   0.000000	 128.730000	   0.000000; % COW
	2	 0.0	 0.0	 3	   0.000000	 158.230000	   0.000000; % NG
	2	 0.0	 0.0	 3	   0.000000	 165.620000	   0.000000; % COW
	2	 0.0	 0.0	 3	   0.000000	  71.220000	   0.000000; % COW
	2	 0.0	 0.0	 3	   0.000000	 102.250000	   0.000000; % NG
	2	 0.0	 0.0	 3	   0.000000	 147.830000	   0.000000; % NG
	2	 0.0	 0.0	 3	   0.000000	  75.370000	   0.000000; % COW
	2	 0.0	 0.0	 3	   0.000000	  86.010000	   0.000000; % NG
	2	 0.0	 0.0	 3	   0.000000	   0.000000	   0.000000; % PEL
	2	 0.0	 0.0	 3	   0.000000	  68.740000	   0.000000; % COW
	2	 0.0	 0.0	 3	   0.000000	  81.910000	   0.000000; % COW
	2	 0.0	 0.0	 3	   0.000000	  81.880000	   0.000000; % NG
	2	 0.0	 0.0	 3	   0.000000	  58.780000	   0.000000; % COW
	2	 0.0	 0.0	 3	   0.000000	  85.570000	   0.000000; % NG
	2	 0.0	 0.0	 3	   0.000000	 101.380000	   0.000000; % NG
	2	 0.0	 0.0	 3	   0.000000	 122.430000	   0.000000; % NG
	2	 0.0	 0.0	 3	   0.000000	  96.620000	   0.000000; % COW
	2	 0.0	 0.0	 3	   0.000000	 106.730000	   0.000000; % NG
	2	 0.0	 0.0	 3	   0.000000	   0.000000	   0.000000; % PEL
	2	 0.0	 0.0	 3	   0.000000	 151.940000	   0.000000; % NG
	2	 0.0	 0.0	 3	   0.000000	 107.510000	   0.000000; % NG
	2	 0.0	 0.0	 3	   0.000000	 103.530000	   0.000000; % NG
	2	 0.0	 0.0	 3	   0.000000	   0.000000	   0.000000; % NG
	2	 0.0	 0.0	 3	   0.000000	   0.000000	   0.000000; % NG
	2	 0.0	 0.0	 3	   0.000000	 136.480000	   0.000000; % COW
	2	 0.0	 0.0	 3	   0.000000	 157.460000	   0.000000; % NG
	2	 0.0	 0.0	 3	   0.000000	  83.970000	   0.000000; % PEL
	2	 0.0	 0.0	 3	   0.000000	 170.740000	   0.000000; % NUC
	2	 0.0	 0.0	 3	   0.000000	  80.910000	   0.000000; % COW
	2	 0.0	 0.0	 3	   0.000000	 147.600000	   0.000000; % COW
	2	 0.0	 0.0	 3	   0.000000	 158.750000	   0.000000; % NUC
	2	 0.0	 0.0	 3	   0.000000	 146.940000	   0.000000; % COW
	2	 0.0	 0.0	 3	   0.000000	  96.320000	   0.000000; % COW
	2	 0.0	 0.0	 3	   0.000000	   0.000000	   0.000000; % COW
	2	 0.0	 0.0	 3	   0.000000	   0.000000	   0.000000; % NG
	2	 0.0	 0.0	 3	   0.000000	   0.000000	   0.000000; % SYNC
	2	 0.0	 0.0	 3	   0.000000	   0.000000	   0.000000; % NG
	2	 0.0	 0.0	 3	   0.000000	   0.000000	   0.000000; % NG
	2	 0.0	 0.0	 3	   0.000000	   0.000000	   0.000000; % SYNC
	2	 0.0	 0.0	 3	   0.000000	   0.000000	   0.000000; % SYNC
	2	 0.0	 0.0	 3	   0.000000	   0.000000	   0.000000; % SYNC
	2	 0.0	 0.0	 3	   0.000000	   0.000000	   0.000000; % NG
	2	 0.0	 0.0	 3	   0.000000	   0.000000	   0.000000; % PEL
	2	 0.0	 0.0	 3	   0.000000	   0.000000	   0.000000; % NG
	2	 0.0	 0.0	 3	   0.000000	   0.000000	   0.000000; % NG
	2	 0.0	 0.0	 3	   0.000000	   0.000000	   0.000000; % NG
	2	 0.0	 0.0	 3	   0.000000	   0.000000	   0.000000; % PEL
	2	 0.0	 0.0	 3	   0.000000	   0.000000	   0.000000; % NG
	2	 0.0	 0.0	 3	   0.000000	   0.000000	   0.000000; % PEL
	2	 0.0	 0.0	 3	   0.000000	   0.000000	   0.000000; % NG
	2	 0.0	 0.0	 3	   0.000000	   0.000000	   0.000000; % NG
	2	 0.0	 0.0	 3	   0.000000	   0.000000	   0.000000; % NG
	2	 0.0	 0.0	 3	   0.000000	   0.000000	   0.000000; % PEL
	2	 0.0	 0.0	 3	   0.000000	   0.000000	   0.000000; % PEL
	2	 0.0	 0.0	 3	   0.000000	   0.000000	   0.000000; % PEL
	2	 0.0	 0.0	 3	   0.000000	   0.000000	   0.000000; % PEL
	2	 0.0	 0.0	 3	   0.000000	   0.000000	   0.000000; % NG
	2	 0.0	 0.0	 3	   0.000000	   0.000000	   0.000000; % NG
	2	 0.0	 0.0	 3	   0.000000	   0.000000	   0.000000; % NG
	2	 0.0	 0.0	 3	   0.000000	   0.000000	   0.000000; % NG
	2	 0.0	 0.0	 3	   0.000000	   0.000000	   0.000000; % NG
	2	 0.0	 0.0	 3	   0.000000	 134.980000	   0.000000; % NG
	2	 0.0	 0.0	 3	   0.000000	   0.000000	   0.000000; % NG
	2	 0.0	 0.0	 3	   0.000000	   0.000000	   0.000000; % NG
	2	 0.0	 0.0	 3	   0.000000	   0.000000	   0.000000; % COW
	2	 0.0	 0.0	 3	   0.000000	   0.000000	   0.000000; % COW
	2	 0.0	 0.0	 3	   0.000000	   0.000000	   0.000000; % COW
	2	 0.0	 0.0	 3	   0.000000	   0.000000	   0.000000; % PEL
	2	 0.0	 0.0	 3	   0.000000	   0.000000	   0.000000; % NG
	2	 0.0	 0.0	 3	   0.000000	   0.000000	   0.000000; % NG
	2	 0.0	 0.0	 3	   0.000000	   0.000000	   0.000000; % PEL
	2	 0.0	 0.0	 3	   0.000000	   0.000000	   0.000000; % PEL
	2	 0.0	 0.0	 3	   0.000000	   0.000000	   0.000000; % NG
	2	 0.0	 0.0	 3	   0.000000	   0.000000	   0.000000; % NG
	2	 0.0	 0.0	 3	   0.000000	   0.000000	   0.000000; % NG
	2	 0.0	 0.0	 3	   0.000000	   0.000000	   0.000000; % PEL
	2	 0.0	 0.0	 3	   0.000000	   0.000000	   0.000000; % NG
	2	 0.0	 0.0	 3	   0.000000	   0.000000	   0.000000; % COW
	2	 0.0	 0.0	 3	   0.000000	   0.000000	   0.000000; % NG
	2	 0.0	 0.0	 3	   0.000000	   0.000000	   0.000000; % NG
	2	 0.0	 0.0	 3	   0.000000	   0.000000	   0.000000; % NG
	2	 0.0	 0.0	 3	   0.000000	   0.000000	   0.000000; % PEL
	2	 0.0	 0.0	 3	   0.000000	   0.000000	   0.000000; % NG
	2	 0.0	 0.0	 3	   0.000000	   0.000000	   0.000000; % PEL
	2	 0.0	 0.0	 3	   0.000000	   0.000000	   0.000000; % PEL
	2	 0.0	 0.0	 3	   0.000000	   0.000000	   0.000000; % PEL
	2	 0.0	 0.0	 3	   0.000000	   0.000000	   0.000000; % NG
	2	 0.0	 0.0	 3	   0.000000	   0.000000	   0.000000; % PEL
	2	 0.0	 0.0	 3	   0.000000	 142.940000	   0.000000; % NG
	2	 0.0	 0.0	 3	   0.000000	 128.220000	   0.000000; % NG
	2	 0.0	 0.0	 3	   0.000000	   0.000000	   0.000000; % NG
	2	 0.0	 0.0	 3	   0.000000	   0.000000	   0.000000; % NG
	2	 0.0	 0.0	 3	   0.000000	   0.000000	   0.000000; % COW
	2	 0.0	 0.0	 3	   0.000000	   0.000000	   0.000000; % PEL
	2	 0.0	 0.0	 3	   0.000000	   0.000000	   0.000000; % NG
	2	 0.0	 0.0	 3	   0.000000	   0.000000	   0.000000; % NG
	2	 0.0	 0.0	 3	   0.000000	   0.000000	   0.000000; % PEL
	2	 0.0	 0.0	 3	   0.000000	   0.000000	   0.000000; % NG
	2	 0.0	 0.0	 3	   0.000000	 141.730000	   0.000000; % NG
	2	 0.0	 0.0	 3	   0.000000	   0.000000	   0.000000; % PEL
	2	 0.0	 0.0	 3	   0.000000	   0.000000	   0.000000; % NG
	2	 0.0	 0.0	 3	   0.000000	   0.000000	   0.000000; % PEL
	2	 0.0	 0.0	 3	   0.000000	   0.000000	   0.000000; % NG
	2	 0.0	 0.0	 3	   0.000000	   0.000000	   0.000000; % PEL
	2	 0.0	 0.0	 3	   0.000000	   0.000000	   0.000000; % NG
	2	 0.0	 0.0	 3	   0.000000	   0.000000	   0.000000; % NG
	2	 0.0	 0.0	 3	   0.000000	   0.000000	   0.000000; % NG
	2	 0.0	 0.0	 3	   0.000000	 100.820000	   0.000000; % NG
	2	 0.0	 0.0	 3	   0.000000	 151.900000	   0.000000; % NG
	2	 0.0	 0.0	 3	   0.000000	   0.000000	   0.000000; % COW
	2	 0.0	 0.0	 3	   0.000000	   0.000000	   0.000000; % PEL
	2	 0.0	 0.0	 3	   0.000000	   0.000000	   0.000000; % PEL
	2	 0.0	 0.0	 3	   0.000000	   0.000000	   0.000000; % NG
	2	 0.0	 0.0	 3	   0.000000	   0.000000	   0.000000; % PEL
	2	 0.0	 0.0	 3	   0.000000	   0.000000	   0.000000; % NG
	2	 0.0	 0.0	 3	   0.000000	   0.000000	   0.000000; % NG
	2	 0.0	 0.0	 3	   0.000000	 114.150000	   0.000000; % NG
	2	 0.0	 0.0	 3	   0.000000	   0.000000	   0.000000; % PEL
	2	 0.0	 0.0	 3	   0.000000	   0.000000	   0.000000; % PEL
	2	 0.0	 0.0	 3	   0.000000	   0.000000	   0.000000; % NG
	2	 0.0	 0.0	 3	   0.000000	   0.000000	   0.000000; % NG
	2	 0.0	 0.0	 3	   0.000000	   0.000000	   0.000000; % NG
	2	 0.0	 0.0	 3	   0.000000	   0.000000	   0.000000; % NG
	2	 0.0	 0.0	 3	   0.000000	  87.950000	   0.000000; % COW
	2	 0.0	 0.0	 3	   0.000000	 130.250000	   0.000000; % NG
	2	 0.0	 0.0	 3	   0.000000	   0.000000	   0.000000; % COW
	2	 0.0	 0.0	 3	   0.000000	   0.000000	   0.000000; % PEL
	2	 0.0	 0.0	 3	   0.000000	   0.000000	   0.000000; % PEL
	2	 0.0	 0.0	 3	   0.000000	   0.000000	   0.000000; % PEL
	2	 0.0	 0.0	 3	   0.000000	   0.000000	   0.000000; % NG
	2	 0.0	 0.0	 3	   0.000000	   0.000000	   0.000000; % NG
	2	 0.0	 0.0	 3	   0.000000	   0.000000	   0.000000; % NG
	2	 0.0	 0.0	 3	   0.000000	   0.000000	   0.000000; % NG
	2	 0.0	 0.0	 3	   0.000000	   0.000000	   0.000000; % PEL
	2	 0.0	 0.0	 3	   0.000000	 145.970000	   0.000000; % NG
	2	 0.0	 0.0	 3	   0.000000	 137.580000	   0.000000; % PEL
	2	 0.0	 0.0	 3	   0.000000	 147.360000	   0.000000; % NG
	2	 0.0	 0.0	 3	   0.000000	   0.000000	   0.000000; % PEL
	2	 0.0	 0.0	 3	   0.000000	   0.000000	   0.000000; % PEL
	2	 0.0	 0.0	 3	   0.000000	   0.000000	   0.000000; % PEL
	2	 0.0	 0.0	 3	   0.000000	   0.000000	   0.000000; % NG
	2	 0.0	 0.0	 3	   0.000000	   0.000000	   0.000000; % PEL
	2	 0.0	 0.0	 3	   0.000000	   0.000000	   0.000000; % NG
	2	 0.0	 0.0	 3	   0.000000	   0.000000	   0.000000; % PEL
	2	 0.0	 0.0	 3	   0.000000	   0.000000	   0.000000; % NG
	2	 0.0	 0.0	 3	   0.000000	   0.000000	   0.000000; % PEL
	2	 0.0	 0.0	 3	   0.000000	   0.000000	   0.000000; % NG
	2	 0.0	 0.0	 3	   0.000000	   0.000000	   0.000000; % NG
	2	 0.0	 0.0	 3	   0.000000	  82.920000	   0.000000; % COW
	2	 0.0	 0.0	 3	   0.000000	 133.590000	   0.000000; % NG
	2	 0.0	 0.0	 3	   0.000000	   0.000000	   0.000000; % NG
	2	 0.0	 0.0	 3	   0.000000	 152.950000	   0.000000; % NG
	2	 0.0	 0.0	 3	   0.000000	  67.350000	   0.000000; % NG
	2	 0.0	 0.0	 3	   0.000000	 134.930000	   0.000000; % NG
	2	 0.0	 0.0	 3	   0.000000	   0.000000	   0.000000; % NG
	2	 0.0	 0.0	 3	   0.000000	  61.320000	   0.000000; % NG
	2	 0.0	 0.0	 3	   0.000000	   0.000000	   0.000000; % NG
	2	 0.0	 0.0	 3	   0.000000	   0.000000	   0.000000; % NG
	2	 0.0	 0.0	 3	   0.000000	   0.000000	   0.000000; % NG
	2	 0.0	 0.0	 3	   0.000000	   0.000000	   0.000000; % NG
	2	 0.0	 0.0	 3	   0.000000	   0.000000	   0.000000; % PEL
	2	 0.0	 0.0	 3	   0.000000	   0.000000	   0.000000; % NG
	2	 0.0	 0.0	 3	   0.000000	   0.000000	   0.000000; % NG
	2	 0.0	 0.0	 3	   0.000000	   0.000000	   0.000000; % NG
	2	 0.0	 0.0	 3	   0.000000	   0.000000	   0.000000; % NG
	2	 0.0	 0.0	 3	   0.000000	   0.000000	   0.000000; % NG
	2	 0.0	 0.0	 3	   0.000000	   0.000000	   0.000000; % NG
	2	 0.0	 0.0	 3	   0.000000	   0.000000	   0.000000; % NG
	2	 0.0	 0.0	 3	   0.000000	   0.000000	   0.000000; % NG
	2	 0.0	 0.0	 3	   0.000000	   0.000000	   0.000000; % NG
	2	 0.0	 0.0	 3	   0.000000	   0.000000	   0.000000; % NG
	2	 0.0	 0.0	 3	   0.000000	   0.000000	   0.000000; % PEL
	2	 0.0	 0.0	 3	   0.000000	  61.400000	   0.000000; % NG
	2	 0.0	 0.0	 3	   0.000000	 114.990000	   0.000000; % NG
	2	 0.0	 0.0	 3	   0.000000	 122.640000	   0.000000; % PEL
	2	 0.0	 0.0	 3	   0.000000	 118.840000	   0.000000; % NG
	2	 0.0	 0.0	 3	   0.000000	   0.000000	   0.000000; % NG
	2	 0.0	 0.0	 3	   0.000000	   0.000000	   0.000000; % PEL
	2	 0.0	 0.0	 3	   0.000000	   0.000000	   0.000000; % PEL
	2	 0.0	 0.0	 3	   0.000000	   0.000000	   0.000000; % NG
	2	 0.0	 0.0	 3	   0.000000	   0.000000	   0.000000; % NG
	2	 0.0	 0.0	 3	   0.000000	   0.000000	   0.000000; % PEL
	2	 0.0	 0.0	 3	   0.000000	   0.000000	   0.000000; % PEL
	2	 0.0	 0.0	 3	   0.000000	 143.830000	   0.000000; % NG
	2	 0.0	 0.0	 3	   0.000000	  67.480000	   0.000000; % NG
	2	 0.0	 0.0	 3	   0.000000	  88.000000	   0.000000; % NG
	2	 0.0	 0.0	 3	   0.000000	   0.000000	   0.000000; % NG
	2	 0.0	 0.0	 3	   0.000000	   0.000000	   0.000000; % PEL
	2	 0.0	 0.0	 3	   0.000000	   0.000000	   0.000000; % PEL
	2	 0.0	 0.0	 3	   0.000000	   0.000000	   0.000000; % NG
	2	 0.0	 0.0	 3	   0.000000	   0.000000	   0.000000; % NG
	2	 0.0	 0.0	 3	   0.000000	   0.000000	   0.000000; % PEL
	2	 0.0	 0.0	 3	   0.000000	 129.860000	   0.000000; % COW
	2	 0.0	 0.0	 3	   0.000000	 108.160000	   0.000000; % NG
	2	 0.0	 0.0	 3	   0.000000	   0.000000	   0.000000; % PEL
	2	 0.0	 0.0	 3	   0.000000	   0.000000	   0.000000; % PEL
	2	 0.0	 0.0	 3	   0.000000	   0.000000	   0.000000; % PEL
...
];

%% branch data
%	fbus	tbus	r	x	b	rateA	rateB	rateC	ratio	angle	status	angmin	angmax
mpc.branch = [
	16	 1	 0.00155	 0.01169	 0.0182	 160.0	 160.0	 160.0	 0.0	 0.0	 1	 -30.0	 30.0;
	355	 1	 0.00157	 0.06612	 0.0	 160.0	 160.0	 160.0	 1.0099	 0.0	 1	 -30.0	 30.0;
	17	 2	 0.00155	 0.01169	 0.0182	 160.0	 160.0	 160.0	 0.0	 0.0	 1	 -30.0	 30.0;
	354	 2	 0.00157	 0.06612	 0.0	 160.0	 160.0	 160.0	 1.022	 0.0	 1	 -30.0	 30.0;
	10	 3	 0.01068	 0.07895	 0.1226	 274.0	 274.0	 274.0	 0.0	 0.0	 1	 -30.0	 30.0;
	219	 3	 0.00165	 0.06736	 0.0	 160.0	 160.0	 160.0	 1.027	 0.0	 1	 -30.0	 30.0;
	220	 3	 0.00165	 0.06736	 0.0	 160.0	 160.0	 160.0	 0.9955	 0.0	 1	 -30.0	 30.0;
	7	 4	 0.01674	 0.09711	 0.14423	 377.0	 377.0	 377.0	 0.0	 0.0	 1	 -30.0	 30.0;
	11	 4	 0.00293	 0.01599	 0.02478	 335.0	 335.0	 335.0	 0.0	 0.0	 1	 -30.0	 30.0;
	14	 4	 0.00442	 0.03223	 0.04985	 464.0	 464.0	 464.0	 0.0	 0.0	 1	 -30.0	 30.0;
	16	 4	 0.00888	 0.06665	 0.08896	 377.0	 377.0	 377.0	 0.0	 0.0	 1	 -30.0	 30.0;
	22	 4	 0.00783	 0.043	 0.04962	 350.0	 350.0	 350.0	 0.0	 0.0	 1	 -30.0	 30.0;
	245	 4	 0.00165	 0.06901	 0.0	 160.0	 160.0	 160.0	 1.0594	 0.0	 1	 -30.0	 30.0;
	246	 4	 0.00165	 0.06901	 0.0	 160.0	 160.0	 160.0	 1.0448	 0.0	 1	 -30.0	 30.0;
	5	 6	 0.00064	 0.0305	 0.0	 400.0	 400.0	 400.0	 1.0435	 0.6	 1	 -30.0	 30.0;
	7	 5	 0.00525	 0.03988	 0.06195	 381.0	 381.0	 381.0	 0.0	 0.0	 1	 -30.0	 30.0;
	10	 5	 0.01459	 0.11219	 0.16553	 381.0	 381.0	 381.0	 0.0	 0.0	 1	 -30.0	 30.0;
	309	 5	 0.00165	 0.0686	 0.0	 160.0	 160.0	 160.0	 1.0646	 0.0	 1	 -30.0	 30.0;
	309	 5	 0.00165	 0.0686	 0.0	 160.0	 160.0	 160.0	 1.0523	 0.0	 1	 -30.0	 30.0;
	6	 8	 0.00112	 0.01329	 0.34125	 1316.0	 1316.0	 1316.0	 0.0	 0.0	 1	 -30.0	 30.0;
	6	 9	 0.00299	 0.03675	 0.9184	 1427.0	 1427.0	 1427.0	 0.0	 0.0	 1	 -30.0	 30.0;
	15	 6	 0.00298	 0.03417	 0.93504	 1427.0	 1427.0	 1427.0	 0.0	 0.0	 1	 -30.0	 30.0;
	31	 6	 0.0015	 0.01506	 0.4032	 1385.0	 1385.0	 1385.0	 0.0	 0.0	 1	 -30.0	 30.0;
	310	 6	 0.0015	 0.06188	 0.0	 250.0	 250.0	 250.0	 1.0613	 0.0	 1	 -30.0	 30.0;
	12	 7	 0.01211	 0.08742	 0.14017	 381.0	 381.0	 381.0	 0.0	 0.0	 1	 -30.0	 30.0;
	13	 7	 0.00205	 0.01326	 0.02243	 335.0	 335.0	 335.0	 0.0	 0.0	 1	 -30.0	 30.0;
	19	 7	 0.0057	 0.0407	 0.06021	 323.0	 323.0	 323.0	 0.0	 0.0	 1	 -30.0	 30.0;
	21	 7	 0.00093	 0.00651	 0.01113	 160.0	 160.0	 160.0	 0.0	 0.0	 1	 -30.0	 30.0;
	29	 7	 0.01269	 0.07498	 0.1302	 362.0	 362.0	 362.0	 0.0	 0.0	 1	 -30.0	 30.0;
	321	 7	 0.00041	 0.03368	 0.0	 250.0	 250.0	 250.0	 1.0323	 0.0	 1	 -30.0	 30.0;
	322	 7	 0.00165	 0.06775	 0.0	 160.0	 160.0	 160.0	 1.0569	 0.0	 1	 -30.0	 30.0;
	8	 18	 0.00336	 0.03977	 1.02163	 1316.0	 1316.0	 1316.0	 0.0	 0.0	 1	 -30.0	 30.0;
	332	 9	 0.00087	 0.05244	 -0.02144	 330.0	 330.0	 330.0	 1.0781	 0.0	 1	 -30.0	 30.0;
	171	 10	 0.01409	 0.10413	 0.15972	 464.0	 464.0	 464.0	 0.0	 0.0	 1	 -30.0	 30.0;
	346	 10	 0.00124	 0.06839	 0.0	 160.0	 160.0	 160.0	 1.0054	 0.0	 1	 -30.0	 30.0;
	347	 10	 0.00124	 0.06839	 0.0	 160.0	 160.0	 160.0	 1.024	 0.0	 1	 -30.0	 30.0;
	16	 11	 0.0057	 0.03952	 0.07553	 464.0	 464.0	 464.0	 0.0	 0.0	 1	 -30.0	 30.0;
	17	 11	 0.0057	 0.03952	 0.07553	 464.0	 464.0	 464.0	 0.0	 0.0	 1	 -30.0	 30.0;
	111	 11	 0.01068	 0.06196	 0.09496	 394.0	 394.0	 394.0	 0.0	 0.0	 1	 -30.0	 30.0;
	352	 11	 0.00165	 0.06901	 0.0	 160.0	 160.0	 160.0	 1.0412	 0.0	 1	 -30.0	 30.0;
	353	 11	 0.00165	 0.06901	 0.0	 160.0	 160.0	 160.0	 1.0559	 0.0	 1	 -30.0	 30.0;
	140	 12	 0.01465	 0.10589	 0.17085	 464.0	 464.0	 464.0	 0.0	 0.0	 1	 -30.0	 30.0;
	359	 12	 0.00155	 0.06612	 0.0	 160.0	 160.0	 160.0	 1.0395	 0.0	 1	 -30.0	 30.0;
	360	 12	 0.00157	 0.06612	 0.0	 160.0	 160.0	 160.0	 1.059	 0.0	 1	 -30.0	 30.0;
	29	 13	 0.01345	 0.08114	 0.14113	 339.0	 339.0	 339.0	 0.0	 0.0	 1	 -30.0	 30.0;
	365	 13	 0.00165	 0.06901	 0.0	 160.0	 160.0	 160.0	 1.0312	 0.0	 1	 -30.0	 30.0;
	366	 13	 0.00165	 0.06901	 0.0	 160.0	 160.0	 160.0	 0.9872	 0.0	 1	 -30.0	 30.0;
	17	 14	 0.00384	 0.02853	 0.04588	 464.0	 464.0	 464.0	 0.0	 0.0	 1	 -30.0	 30.0;
	367	 14	 0.00157	 0.06798	 0.0	 160.0	 160.0	 160.0	 1.0664	 0.0	 1	 -30.0	 30.0;
	368	 14	 0.00165	 0.06901	 0.0	 160.0	 160.0	 160.0	 1.0777	 0.0	 1	 -30.0	 30.0;
	18	 15	 0.00358	 0.04262	 1.0944	 1662.0	 1662.0	 1662.0	 0.0	 0.0	 1	 -30.0	 30.0;
	15	 165	 0.00207	 0.02474	 0.664	 831.0	 831.0	 831.0	 0.0	 0.0	 1	 -30.0	 30.0;
	374	 15	 0.0015	 0.06188	 0.0	 250.0	 250.0	 250.0	 1.1502	 0.0	 1	 -30.0	 30.0;
	16	 18	 0.00036	 0.02519	 0.0	 500.0	 500.0	 500.0	 1.0605	 0.0	 1	 -30.0	 30.0;
	16	 73	 0.00909	 0.0624	 0.11142	 464.0	 464.0	 464.0	 0.0	 0.0	 1	 -30.0	 30.0;
	17	 18	 0.00036	 0.02519	 0.0	 500.0	 500.0	 500.0	 1.0607	 0.0	 1	 -30.0	 30.0;
	17	 74	 0.00868	 0.06405	 0.09699	 464.0	 464.0	 464.0	 0.0	 0.0	 1	 -30.0	 30.0;
	20	 18	 0.00063	 0.00749	 0.39226	 1427.0	 1427.0	 1427.0	 0.0	 0.0	 1	 -30.0	 30.0;
	75	 18	 0.00219	 0.02369	 0.59584	 1434.0	 1434.0	 1434.0	 0.0	 0.0	 1	 -30.0	 30.0;
	18	 76	 0.00137	 0.01625	 0.41184	 1662.0	 1662.0	 1662.0	 0.0	 0.0	 1	 -30.0	 30.0;
	18	 101	 0.00231	 0.02769	 0.70144	 1662.0	 1662.0	 1662.0	 0.0	 0.0	 1	 -30.0	 30.0;
	124	 19	 0.01696	 0.12366	 0.19699	 464.0	 464.0	 464.0	 0.0	 0.0	 1	 -30.0	 30.0;
	425	 19	 0.00165	 0.06818	 0.0	 160.0	 160.0	 160.0	 1.0241	 0.0	 1	 -30.0	 30.0;
	67	 20	 0.00331	 0.03425	 0.85888	 831.0	 831.0	 831.0	 0.0	 0.0	 1	 -30.0	 30.0;
	447	 20	 0.00137	 0.06119	 -0.01504	 250.0	 250.0	 250.0	 1.0796	 0.0	 1	 -30.0	 30.0;
	448	 20	 0.00137	 0.06119	 -0.01504	 250.0	 250.0	 250.0	 1.0923	 0.0	 1	 -30.0	 30.0;
	502	 21	 0.00165	 0.07107	 0.0	 160.0	 160.0	 160.0	 0.9922	 0.0	 1	 -30.0	 30.0;
	112	 22	 0.00465	 0.02618	 0.02962	 362.0	 362.0	 362.0	 0.0	 0.0	 1	 -30.0	 30.0;
	526	 22	 0.00165	 0.06901	 0.0	 160.0	 160.0	 160.0	 1.0685	 0.0	 1	 -30.0	 30.0;
	527	 22	 0.00165	 0.06901	 0.0	 160.0	 160.0	 160.0	 1.0424	 0.0	 1	 -30.0	 30.0;
	37	 23	 0.01163	 0.07031	 0.1058	 394.0	 394.0	 394.0	 0.0	 0.0	 1	 -30.0	 30.0;
	46	 23	 0.00837	 0.04868	 0.07348	 457.0	 457.0	 457.0	 0.0	 0.0	 1	 -30.0	 30.0;
	53	 23	 0.01122	 0.06558	 0.09835	 274.0	 274.0	 274.0	 0.0	 0.0	 1	 -30.0	 30.0;
	540	 23	 0.0014	 0.0668	 0.0	 160.0	 160.0	 160.0	 1.0182	 0.0	 1	 -30.0	 30.0;
	54	 24	 0.00769	 0.05727	 0.08789	 160.0	 160.0	 160.0	 0.0	 0.0	 1	 -30.0	 30.0;
	545	 24	 0.00151	 0.06715	 0.0	 160.0	 160.0	 160.0	 1.0161	 0.0	 1	 -30.0	 30.0;
	41	 25	 0.00556	 0.04145	 0.0636	 274.0	 274.0	 274.0	 0.0	 0.0	 1	 -30.0	 30.0;
	53	 25	 0.00452	 0.03368	 0.05169	 464.0	 464.0	 464.0	 0.0	 0.0	 1	 -30.0	 30.0;
	54	 25	 0.00019	 0.0014	 0.00213	 464.0	 464.0	 464.0	 0.0	 0.0	 1	 -30.0	 30.0;
	564	 25	 0.00157	 0.07808	 0.0	 160.0	 160.0	 160.0	 1.0276	 0.0	 1	 -30.0	 30.0;
	38	 26	 0.00698	 0.05196	 0.07967	 160.0	 160.0	 160.0	 0.0	 0.0	 1	 -30.0	 30.0;
	568	 26	 0.00149	 0.06616	 0.0	 160.0	 160.0	 160.0	 1.013	 0.0	 1	 -30.0	 30.0;
	28	 27	 0.0	 0.0001	 0.0	 876.0	 876.0	 876.0	 0.0	 0.0	 1	 -30.0	 30.0;
	33	 27	 0.0024	 0.01494	 0.02253	 160.0	 160.0	 160.0	 0.0	 0.0	 1	 -30.0	 30.0;
	48	 27	 0.01213	 0.06215	 0.09371	 362.0	 362.0	 362.0	 0.0	 0.0	 1	 -30.0	 30.0;
	27	 74	 0.01116	 0.07231	 0.10367	 304.0	 304.0	 304.0	 0.0	 0.0	 1	 -30.0	 30.0;
	47	 28	 0.00248	 0.01798	 0.02759	 464.0	 464.0	 464.0	 0.0	 0.0	 1	 -30.0	 30.0;
	28	 88	 0.01488	 0.08161	 0.1148	 362.0	 362.0	 362.0	 0.0	 0.0	 1	 -30.0	 30.0;
	30	 29	 0.0	 0.0001	 0.0	 876.0	 876.0	 876.0	 0.0	 0.0	 1	 -30.0	 30.0;
	29	 32	 0.00034	 0.02097	 0.0	 500.0	 500.0	 500.0	 1.0619	 0.0	 1	 -30.0	 30.0;
	45	 29	 0.00545	 0.04021	 0.06699	 464.0	 464.0	 464.0	 0.0	 0.0	 1	 -30.0	 30.0;
	48	 29	 0.00574	 0.04283	 0.06573	 464.0	 464.0	 464.0	 0.0	 0.0	 1	 -30.0	 30.0;
	613	 29	 0.00157	 0.06775	 0.0	 160.0	 160.0	 160.0	 1.0016	 0.0	 1	 -30.0	 30.0;
	46	 30	 0.00545	 0.04021	 0.06699	 464.0	 464.0	 464.0	 0.0	 0.0	 1	 -30.0	 30.0;
	49	 30	 0.00707	 0.04541	 0.06931	 362.0	 362.0	 362.0	 0.0	 0.0	 1	 -30.0	 30.0;
	32	 31	 0.0	 0.0001	 0.0	 1593.0	 1593.0	 1593.0	 0.0	 0.0	 1	 -30.0	 30.0;
	39	 31	 0.00176	 0.02144	 0.57344	 1385.0	 1385.0	 1385.0	 0.0	 0.0	 1	 -30.0	 30.0;
	36	 32	 0.00167	 0.0189	 0.54176	 498.0	 498.0	 498.0	 0.0	 0.0	 1	 -30.0	 30.0;
	615	 33	 0.00163	 0.06946	 0.0	 160.0	 160.0	 160.0	 1.0291	 0.0	 1	 -30.0	 30.0;
	35	 34	 0.0	 0.0001	 0.0	 1593.0	 1593.0	 1593.0	 0.0	 0.0	 1	 -30.0	 30.0;
	34	 51	 0.00113	 0.01406	 0.37488	 1385.0	 1385.0	 1385.0	 0.0	 0.0	 1	 -30.0	 30.0;
	183	 34	 0.00188	 0.02287	 0.6432	 1385.0	 1385.0	 1385.0	 0.0	 0.0	 1	 -30.0	 30.0;
	183	 35	 0.00188	 0.02287	 0.6432	 1385.0	 1385.0	 1385.0	 0.0	 0.0	 1	 -30.0	 30.0;
	617	 35	 0.00135	 0.06052	 0.0	 250.0	 250.0	 250.0	 1.0654	 0.0	 1	 -30.0	 30.0;
	644	 36	 0.00135	 0.06052	 0.0	 250.0	 250.0	 250.0	 1.1003	 0.0	 1	 -30.0	 30.0;
	645	 36	 0.00153	 0.06156	 0.0	 250.0	 250.0	 250.0	 1.0971	 0.0	 1	 -30.0	 30.0;
	38	 37	 0.0	 0.0001	 0.0	 876.0	 876.0	 876.0	 0.0	 0.0	 1	 -30.0	 30.0;
	663	 37	 0.00157	 0.06616	 0.0	 160.0	 160.0	 160.0	 1.0009	 0.0	 1	 -30.0	 30.0;
	55	 38	 0.00316	 0.02076	 0.03146	 394.0	 394.0	 394.0	 0.0	 0.0	 1	 -30.0	 30.0;
	40	 39	 0.0	 0.0001	 0.0	 1593.0	 1593.0	 1593.0	 0.0	 0.0	 1	 -30.0	 30.0;
	682	 39	 0.00139	 0.05984	 0.0	 250.0	 250.0	 250.0	 1.0603	 0.0	 1	 -30.0	 30.0;
	44	 40	 0.00109	 0.01277	 0.34176	 1385.0	 1385.0	 1385.0	 0.0	 0.0	 1	 -30.0	 30.0;
	679	 40	 0.0014	 0.06235	 0.0	 250.0	 250.0	 250.0	 1.0996	 0.0	 1	 -30.0	 30.0;
	42	 41	 0.0	 0.0001	 0.0	 876.0	 876.0	 876.0	 0.0	 0.0	 1	 -30.0	 30.0;
	41	 43	 0.00081	 0.03	 0.0	 400.0	 400.0	 400.0	 1.0377	 0.0	 1	 -30.0	 30.0;
	80	 41	 0.00372	 0.0438	 0.10096	 609.0	 609.0	 609.0	 0.0	 0.0	 1	 -30.0	 30.0;
	47	 42	 0.00882	 0.06564	 0.10066	 274.0	 274.0	 274.0	 0.0	 0.0	 1	 -30.0	 30.0;
	54	 42	 0.00355	 0.02643	 0.04056	 392.0	 392.0	 392.0	 0.0	 0.0	 1	 -30.0	 30.0;
	689	 42	 0.00145	 0.06839	 0.0	 160.0	 160.0	 160.0	 1.0037	 0.0	 1	 -30.0	 30.0;
	44	 43	 0.0	 0.0001	 0.0	 1593.0	 1593.0	 1593.0	 0.0	 0.0	 1	 -30.0	 30.0;
	99	 43	 0.00169	 0.01994	 0.50624	 831.0	 831.0	 831.0	 0.0	 0.0	 1	 -30.0	 30.0;
	50	 44	 0.00094	 0.01097	 0.29376	 1662.0	 1662.0	 1662.0	 0.0	 0.0	 1	 -30.0	 30.0;
	46	 45	 0.0	 0.0001	 0.0	 876.0	 876.0	 876.0	 0.0	 0.0	 1	 -30.0	 30.0;
	49	 45	 0.01048	 0.06097	 0.09205	 394.0	 394.0	 394.0	 0.0	 0.0	 1	 -30.0	 30.0;
	706	 47	 0.00157	 0.06775	 0.0	 160.0	 160.0	 160.0	 1.0249	 0.0	 1	 -30.0	 30.0;
	707	 47	 0.00165	 0.06775	 0.0	 160.0	 160.0	 160.0	 1.0201	 0.0	 1	 -30.0	 30.0;
	49	 48	 0.0	 0.0001	 0.0	 876.0	 876.0	 876.0	 0.0	 0.0	 1	 -30.0	 30.0;
	717	 48	 0.00163	 0.06783	 0.0	 160.0	 160.0	 160.0	 1.023	 0.0	 1	 -30.0	 30.0;
	716	 49	 0.00143	 0.06831	 0.0	 160.0	 160.0	 160.0	 1.0238	 0.0	 1	 -30.0	 30.0;
	51	 50	 0.0	 0.0001	 0.0	 1593.0	 1593.0	 1593.0	 0.0	 0.0	 1	 -30.0	 30.0;
	98	 50	 0.0015	 0.01788	 0.4512	 831.0	 831.0	 831.0	 0.0	 0.0	 1	 -30.0	 30.0;
	100	 50	 0.00469	 0.05544	 1.4048	 831.0	 831.0	 831.0	 0.0	 0.0	 1	 -30.0	 30.0;
	726	 50	 0.00139	 0.0608	 0.0	 250.0	 250.0	 250.0	 1.0815	 0.0	 1	 -30.0	 30.0;
	727	 51	 0.0014	 0.06235	 0.0	 250.0	 250.0	 250.0	 1.0819	 0.0	 1	 -30.0	 30.0;
	53	 52	 0.00151	 0.00878	 0.01316	 160.0	 160.0	 160.0	 0.0	 0.0	 1	 -30.0	 30.0;
	754	 52	 0.00163	 0.06754	 0.0	 160.0	 160.0	 160.0	 1.0317	 0.0	 1	 -30.0	 30.0;
	181	 55	 0.01434	 0.08353	 0.12603	 394.0	 394.0	 394.0	 0.0	 0.0	 1	 -30.0	 30.0;
	778	 55	 0.00161	 0.06762	 0.0	 160.0	 160.0	 160.0	 0.9979	 0.0	 1	 -30.0	 30.0;
	74	 56	 0.00207	 0.01281	 0.02052	 394.0	 394.0	 394.0	 0.0	 0.0	 1	 -30.0	 30.0;
	796	 56	 0.00207	 0.06777	 -0.003	 160.0	 160.0	 160.0	 1.0389	 0.0	 1	 -30.0	 30.0;
	81	 57	 0.00083	 0.00496	 0.00726	 137.0	 137.0	 137.0	 0.0	 0.0	 1	 -30.0	 30.0;
	80	 58	 0.00083	 0.00496	 0.00726	 137.0	 137.0	 137.0	 0.0	 0.0	 1	 -30.0	 30.0;
	63	 59	 0.00207	 0.01405	 0.02265	 362.0	 362.0	 362.0	 0.0	 0.0	 1	 -30.0	 30.0;
	82	 59	 0.01116	 0.07045	 0.11606	 362.0	 362.0	 362.0	 0.0	 0.0	 1	 -30.0	 30.0;
	821	 59	 0.00165	 0.06798	 -0.00319	 160.0	 160.0	 160.0	 1.0178	 0.0	 1	 -30.0	 30.0;
	60	 85	 0.01095	 0.0593	 0.08441	 362.0	 362.0	 362.0	 0.0	 0.0	 1	 -30.0	 30.0;
	104	 60	 0.00599	 0.04091	 0.07212	 464.0	 464.0	 464.0	 0.0	 0.0	 1	 -30.0	 30.0;
	834	 60	 0.00145	 0.06921	 -0.00532	 160.0	 160.0	 160.0	 0.9936	 0.0	 1	 -30.0	 30.0;
	836	 60	 0.00372	 0.12583	 -0.00242	 100.0	 100.0	 100.0	 1.0154	 0.0	 1	 -30.0	 30.0;
	62	 61	 0.0	 0.0001	 0.0	 876.0	 876.0	 876.0	 0.0	 0.0	 1	 -30.0	 30.0;
	64	 61	 0.00517	 0.03843	 0.05876	 464.0	 464.0	 464.0	 0.0	 0.0	 1	 -30.0	 30.0;
	109	 61	 0.00083	 0.0062	 0.00958	 464.0	 464.0	 464.0	 0.0	 0.0	 1	 -30.0	 30.0;
	184	 61	 0.01219	 0.07066	 0.11742	 274.0	 274.0	 274.0	 0.0	 0.0	 1	 -30.0	 30.0;
	82	 62	 0.00165	 0.01095	 0.01955	 464.0	 464.0	 464.0	 0.0	 0.0	 1	 -30.0	 30.0;
	110	 62	 0.00083	 0.0062	 0.00949	 464.0	 464.0	 464.0	 0.0	 0.0	 1	 -30.0	 30.0;
	71	 63	 0.00475	 0.03079	 0.04879	 362.0	 362.0	 362.0	 0.0	 0.0	 1	 -30.0	 30.0;
	91	 63	 0.00455	 0.02769	 0.04608	 394.0	 394.0	 394.0	 0.0	 0.0	 1	 -30.0	 30.0;
	94	 63	 0.00186	 0.0126	 0.02236	 464.0	 464.0	 464.0	 0.0	 0.0	 1	 -30.0	 30.0;
	96	 63	 0.00826	 0.04236	 0.06118	 362.0	 362.0	 362.0	 0.0	 0.0	 1	 -30.0	 30.0;
	64	 69	 0.00434	 0.02975	 0.05266	 464.0	 464.0	 464.0	 0.0	 0.0	 1	 -30.0	 30.0;
	79	 64	 0.00351	 0.02438	 0.03998	 362.0	 362.0	 362.0	 0.0	 0.0	 1	 -30.0	 30.0;
	93	 64	 0.00186	 0.0126	 0.02236	 464.0	 464.0	 464.0	 0.0	 0.0	 1	 -30.0	 30.0;
	95	 64	 0.00826	 0.04236	 0.06118	 362.0	 362.0	 362.0	 0.0	 0.0	 1	 -30.0	 30.0;
	90	 65	 0.00785	 0.04132	 0.06389	 394.0	 394.0	 394.0	 0.0	 0.0	 1	 -30.0	 30.0;
	65	 91	 0.00227	 0.01446	 0.02585	 394.0	 394.0	 394.0	 0.0	 0.0	 1	 -30.0	 30.0;
	66	 67	 0.00031	 0.02094	 0.0	 500.0	 500.0	 500.0	 1.0616	 0.0	 1	 -30.0	 30.0;
	66	 68	 0.00248	 0.02355	 0.04763	 457.0	 457.0	 457.0	 0.0	 0.0	 1	 -30.0	 30.0;
	152	 66	 0.01033	 0.08285	 0.13959	 464.0	 464.0	 464.0	 0.0	 0.0	 1	 -30.0	 30.0;
	138	 67	 0.00194	 0.02056	 0.51584	 866.0	 866.0	 866.0	 0.0	 0.0	 1	 -30.0	 30.0;
	911	 67	 0.00156	 0.06269	 -0.00992	 250.0	 250.0	 250.0	 1.0656	 0.0	 1	 -30.0	 30.0;
	912	 67	 0.00156	 0.06269	 -0.00992	 250.0	 250.0	 250.0	 1.066	 0.0	 1	 -30.0	 30.0;
	68	 78	 0.00579	 0.04153	 0.06621	 464.0	 464.0	 464.0	 0.0	 0.0	 1	 -30.0	 30.0;
	978	 68	 0.00165	 0.06694	 -0.0031	 160.0	 160.0	 160.0	 1.0083	 0.0	 1	 -30.0	 30.0;
	979	 68	 0.00145	 0.06653	 -0.00319	 160.0	 160.0	 160.0	 1.006	 0.0	 1	 -30.0	 30.0;
	83	 69	 0.00145	 0.00992	 0.01762	 464.0	 464.0	 464.0	 0.0	 0.0	 1	 -30.0	 30.0;
	995	 69	 0.00145	 0.0655	 -0.00252	 160.0	 160.0	 160.0	 1.0107	 0.0	 1	 -30.0	 30.0;
	996	 69	 0.00145	 0.07045	 -0.00252	 160.0	 160.0	 160.0	 1.0025	 0.0	 1	 -30.0	 30.0;
	70	 73	 0.00145	 0.00971	 0.01626	 457.0	 457.0	 457.0	 0.0	 0.0	 1	 -30.0	 30.0;
	107	 70	 0.00062	 0.00413	 0.00697	 457.0	 457.0	 457.0	 0.0	 0.0	 1	 -30.0	 30.0;
	72	 71	 0.0	 0.0001	 0.0	 876.0	 876.0	 876.0	 0.0	 0.0	 1	 -30.0	 30.0;
	86	 71	 0.00165	 0.00971	 0.01423	 362.0	 362.0	 362.0	 0.0	 0.0	 1	 -30.0	 30.0;
	1059	 71	 0.00145	 0.06983	 -0.00232	 160.0	 160.0	 160.0	 1.0193	 0.0	 1	 -30.0	 30.0;
	1060	 71	 0.00165	 0.06777	 -0.00281	 160.0	 160.0	 160.0	 0.9558	 0.0	 1	 -30.0	 30.0;
	73	 75	 0.00075	 0.02444	 -0.00832	 330.0	 330.0	 330.0	 1.0544	 -1.7	 1	 -30.0	 30.0;
	87	 73	 0.00393	 0.02851	 0.04501	 464.0	 464.0	 464.0	 0.0	 0.0	 1	 -30.0	 30.0;
	74	 76	 0.00075	 0.02469	 -0.008	 330.0	 330.0	 330.0	 1.0606	 -1.7	 1	 -30.0	 30.0;
	74	 108	 0.00083	 0.00517	 0.00871	 464.0	 464.0	 464.0	 0.0	 0.0	 1	 -30.0	 30.0;
	76	 75	 0.0	 0.0001	 0.0	 1593.0	 1593.0	 1593.0	 0.0	 0.0	 1	 -30.0	 30.0;
	76	 105	 0.00244	 0.02756	 0.768	 845.0	 845.0	 845.0	 0.0	 0.0	 1	 -30.0	 30.0;
	84	 77	 0.00393	 0.02665	 0.04617	 457.0	 457.0	 457.0	 0.0	 0.0	 1	 -30.0	 30.0;
	85	 77	 0.00186	 0.01384	 0.02284	 464.0	 464.0	 464.0	 0.0	 0.0	 1	 -30.0	 30.0;
	1095	 77	 0.00165	 0.06694	 -0.0029	 160.0	 160.0	 160.0	 1.0162	 0.0	 1	 -30.0	 30.0;
	1096	 77	 0.00145	 0.06736	 -0.00658	 160.0	 160.0	 160.0	 1.0085	 0.0	 1	 -30.0	 30.0;
	78	 103	 0.00496	 0.03368	 0.05963	 464.0	 464.0	 464.0	 0.0	 0.0	 1	 -30.0	 30.0;
...